 Abaqus/Standard 3DEXPERIENCE R2018x HotFix 1                  DATE 13-Jun-2023 TIME 18:09:34
 SUMMARY OF JOB INFORMATION:
 STEP  INC ATT SEVERE EQUIL TOTAL  TOTAL      STEP       INC OF       DOF    IF
               DISCON ITERS ITERS  TIME/    TIME/LPF    TIME/LPF    MONITOR RIKS
               ITERS               FREQ
   1     1   1     0     3     3  0.0500     0.0500     0.05000   
   1     2   1     0     2     2  0.100      0.100      0.05000   
   1     3   1     0     2     2  0.175      0.175      0.07500   
   1     4   1     0     3     3  0.288      0.288      0.1125    
   1     5   1     0     3     3  0.456      0.456      0.1688    
   1     6   1U    0     4     4  0.456      0.456      0.2531    
   1     6   2     0     2     2  0.520      0.520      0.06328   
   1     7   1     0     2     2  0.614      0.614      0.09492   
   1     8   1     0     3     3  0.757      0.757      0.1424    
   1     9   1     0     4     4  0.970      0.970      0.2136    
   1    10   1     0     2     2  1.00       1.00       0.02959   
   2     1   1     0     3     3  1.01       0.0125     0.01250   
   2     2   1     0     2     2  1.02       0.0250     0.01250   
   2     3   1     0     2     2  1.04       0.0438     0.01875   
   2     4   1     0     1     1  1.05       0.0500     0.006250  
   2     5   1     0     3     3  1.10       0.100      0.05000   
   2     6   1U    0     2     2  1.10       0.100      0.05000   
   2     6   2     0     2     2  1.11       0.113      0.01250   
   2     7   1     0     6     6  1.13       0.131      0.01875   
   2     8   1     0     6     6  1.15       0.150      0.01875   
   2     9   1U    0     2     2  1.15       0.150      0.01875   
   2     9   2     0     4     4  1.15       0.155      0.004688  
   2    10   1     0     4     4  1.16       0.159      0.004688  
   2    11   1     0     6     6  1.17       0.166      0.007031  
   2    12   1     0     4     4  1.17       0.173      0.007031  
   2    13   1     0     4     4  1.18       0.180      0.007031  
   2    14   1     0     4     4  1.19       0.191      0.01055   
   2    15   1     0     4     4  1.20       0.200      0.008984  
   2    16   1     0     4     4  1.22       0.224      0.02373   
   2    17   1     0     6     6  1.25       0.250      0.02627   
   2    18   1     0     7     7  1.28       0.276      0.02627   
   2    19   1     0     7     7  1.30       0.300      0.02373   
   2    20   1     0     8     8  1.33       0.326      0.02627   
   2    21   1     0     6     6  1.35       0.350      0.02373   
   2    22   1     0     4     4  1.38       0.376      0.02627   
   2    23   1     0     5     5  1.40       0.400      0.02373   
   2    24   1     0     4     4  1.43       0.426      0.02627   
   2    25   1     0     3     3  1.45       0.450      0.02373   
   2    26   1     0     5     5  1.49       0.489      0.03940   
   2    27   1     0     2     2  1.50       0.500      0.01060   
   2    28   1     0     6     6  1.54       0.539      0.03940   
   2    29   1     0     7     7  1.55       0.550      0.01060   
   2    30   1U    0     3     3  1.55       0.550      0.03940   
   2    30   2     0     5     5  1.56       0.560      0.009851  
   2    31   1     0     4     4  1.57       0.570      0.009851  
   2    32   1     0     3     3  1.58       0.580      0.009851  
   2    33   1U    0     3     3  1.58       0.580      0.01478   
   2    33   2     0     3     3  1.58       0.583      0.003694  
   2    34   1     0     2     2  1.59       0.589      0.005541  
   2    35   1     0     3     3  1.60       0.597      0.008312  
   2    36   1     0     2     2  1.60       0.600      0.002900  
   2    37   1U    0     3     3  1.60       0.600      0.01870   
   2    37   2     0     4     4  1.60       0.605      0.004675  
   2    38   1     0     3     3  1.61       0.612      0.007013  
   2    39   1     0     2     2  1.62       0.622      0.01052   
   2    40   1     0     2     2  1.64       0.638      0.01578   
   2    41   1     0     2     2  1.65       0.650      0.01201   
   2    42   1     0     2     2  1.69       0.686      0.03550   
   2    43   1     0     2     2  1.70       0.700      0.01450   
   2    44   1     0     3     3  1.75       0.750      0.05000   
   2    45   1     0     2     2  1.80       0.800      0.05000   
   2    46   1     0     2     2  1.85       0.850      0.05000   
   2    47   1     0     2     2  1.90       0.900      0.05000   
   2    48   1     0     2     2  1.95       0.950      0.05000   
   2    49   1U    0     2     2  1.95       0.950      0.05000   
   2    49   2     0     2     2  1.96       0.963      0.01250   
   2    50   1     0     1     1  1.98       0.981      0.01875   
   2    51   1U    0     2     2  1.98       0.981      0.01875   
   2    51   2     0     1     1  1.99       0.986      0.004688  
   2    52   1     0     1     1  1.99       0.993      0.007031  
   2    53   1U    0     2     2  1.99       0.993      0.007031  
   2    53   2     0     1     1  1.99       0.995      0.001758  
   2    54   1     0     2     2  2.00       0.997      0.002637  
   2    55   1U    0     2     2  2.00       0.997      0.002637  
   2    55   2     0     1     1  2.00       0.998      0.0006592 
   2    56   1     0     1     1  2.00       0.999      0.0009888 
   2    57   1U    0     1     1  2.00       0.999      0.0009888 
   2    57   2     0     1     1  2.00       0.999      0.0002472 
   2    58   1     0     1     1  2.00       1.00       0.0003708 
   2    59   1U    0     2     2  2.00       1.00       0.0003708 
   2    59   2     0     1     1  2.00       1.00       9.270e-05 
   2    60   1     0     1     1  2.00       1.00       0.0001390 
   2    61   1U    0     2     2  2.00       1.00       0.0001390 
   2    61   2     0     1     1  2.00       1.00       3.476e-05 
   2    62   1     0     1     1  2.00       1.00       5.214e-05 
   2    63   1U    0     1     1  2.00       1.00       5.214e-05 
   2    63   2     0     3     3  2.00       1.00       1.304e-05 
   2    64   1     0     3     3  2.00       1.00       1.955e-05 
   2    65   1U    0     2     2  2.00       1.00       1.955e-05 
   2    65   2     0     2     2  2.00       1.00       4.888e-06 
   2    66   1     0     1     1  2.00       1.00       7.332e-06 
   2    67   1U    0     1     1  2.00       1.00       7.332e-06 
   2    67   2     0     1     1  2.00       1.00       1.833e-06 
   2    68   1     0     1     1  2.00       1.00       2.750e-06 
   2    69   1U    0     2     2  2.00       1.00       2.750e-06 
   2    69   2     0     2     2  2.00       1.00       6.874e-07 
   2    70   1     0     1     1  2.00       1.00       1.031e-06 
   2    71   1U    0     6     6  2.00       1.00       1.031e-06 
   2    71   2     0     1     1  2.00       1.00       2.578e-07 
                          
 THE ANALYSIS HAS COMPLETED SUCCESSFULLY
