1

   Abaqus 3DEXPERIENCE R2018x HotFix 1                                  Date 03-Aug-2023   Time 01:00:11
   For use by TEXAS A_M UNIVERSITY SYSTEM under license from Dassault Systemes or its subsidiary.

 Job: PVloop-total                                                               
                                                                                 
 STEP    1     INCREMENT     1     STEP TIME    0.00    


                        S T E P       1     S T A T I C   A N A L Y S I S


                                                                                          

     AUTOMATIC TIME CONTROL WITH -
          A SUGGESTED INITIAL TIME INCREMENT OF                5.000E-02
          AND A TOTAL TIME PERIOD OF                            1.00    
          THE MINIMUM TIME INCREMENT ALLOWED IS                1.000E-10
          THE MAXIMUM TIME INCREMENT ALLOWED IS                 1.00    

     LINEAR EQUATION SOLVER TYPE         DIRECT SPARSE

     AUTOMATIC STABILIZATION WITH DISSIPATED ENERGY FRACTION =  1.000E-03

 CONVERGENCE TOLERANCE PARAMETERS FOR FORCE    
     CRITERION FOR RESIDUAL FORCE     FOR A NONLINEAR PROBLEM          5.000E-03
     CRITERION FOR DISP.    CORRECTION IN A NONLINEAR PROBLEM          1.000E-02
     INITIAL VALUE OF TIME AVERAGE FORCE                               1.000E-02
     AVERAGE FORCE     IS TIME AVERAGE FORCE    
     ALTERNATE CRIT. FOR RESIDUAL FORCE     FOR A NONLINEAR PROBLEM    2.000E-02
     CRITERION FOR ZERO FORCE     RELATIVE TO TIME AVRG. FORCE         1.000E-05
     CRITERION FOR RESIDUAL FORCE     WHEN THERE IS ZERO FLUX          1.000E-05
     CRITERION FOR DISP.    CORRECTION WHEN THERE IS ZERO FLUX         1.000E-03
     CRITERION FOR RESIDUAL FORCE     FOR A LINEAR INCREMENT           1.000E-08
     FIELD CONVERSION RATIO                                             1.00    
     CRITERION FOR ZERO FORCE     REL. TO TIME AVRG. MAX. FORCE        1.000E-05
     CRITERION FOR ZERO DISP.    RELATIVE TO CHARACTERISTIC LENGTH     1.000E-08

     VOLUMETRIC STRAIN COMPATIBILITY TOLERANCE FOR HYBRID SOLIDS       1.000E-05
     AXIAL STRAIN COMPATIBILITY TOLERANCE FOR HYBRID BEAMS             1.000E-05
     TRANS. SHEAR STRAIN COMPATIBILITY TOLERANCE FOR HYBRID BEAMS      1.000E-05
     SOFT CONTACT CONSTRAINT COMPATIBILITY TOLERANCE FOR P>P0          5.000E-03
     SOFT CONTACT CONSTRAINT COMPATIBILITY TOLERANCE FOR P=0.0         0.100    
     CONTACT FORCE ERROR TOLERANCE FOR CONVERT SDI=YES                 1.00    
     DISPLACEMENT COMPATIBILITY TOLERANCE FOR DCOUP ELEMENTS           1.000E-05
     ROTATION COMPATIBILITY TOLERANCE FOR DCOUP ELEMENTS               1.000E-05

 EQUILIBRIUM WILL BE CHECKED FOR SEVERE DISCONTINUITY ITERATIONS

 TIME INCREMENTATION CONTROL PARAMETERS:
     FIRST EQUILIBRIUM ITERATION FOR CONSECUTIVE DIVERGENCE CHECK              4
     EQUILIBRIUM ITERATION AT WHICH LOG. CONVERGENCE RATE CHECK BEGINS         8
     EQUILIBRIUM ITERATION AFTER WHICH ALTERNATE RESIDUAL IS USED              9
     MAXIMUM EQUILIBRIUM ITERATIONS ALLOWED                                   16
     EQUILIBRIUM ITERATION COUNT FOR CUT-BACK IN NEXT INCREMENT               10
     MAXIMUM EQUILIB. ITERS IN TWO INCREMENTS FOR TIME INCREMENT INCREASE      4
     MAXIMUM ITERATIONS FOR SEVERE DISCONTINUITIES                            50
     MAXIMUM ATTEMPTS ALLOWED IN AN INCREMENT                                  5
     MAXIMUM DISCON. ITERS IN TWO INCREMENTS FOR TIME INCREMENT INCREASE      50
     MAXIMUM CONTACT AUGMENTATIONS FOR *SURFACE BEHAVIOR,AUGMENTED LAGRANGE   50
     CUT-BACK FACTOR AFTER DIVERGENCE                                 0.2500    
     CUT-BACK FACTOR FOR TOO SLOW CONVERGENCE                         0.5000    
     CUT-BACK FACTOR AFTER TOO MANY EQUILIBRIUM ITERATIONS            0.7500    
     CUT-BACK FACTOR AFTER TOO MANY SEVERE DISCONTINUITY ITERATIONS   0.2500    
     CUT-BACK FACTOR AFTER PROBLEMS IN ELEMENT ASSEMBLY               0.2500    
     INCREASE FACTOR AFTER TWO INCREMENTS THAT CONVERGE QUICKLY        1.500    
     MAX. TIME INCREMENT INCREASE FACTOR ALLOWED                       1.500    
     MAX. TIME INCREMENT INCREASE FACTOR ALLOWED (DYNAMICS)            1.250    
     MAX. TIME INCREMENT INCREASE FACTOR ALLOWED (DIFFUSION)           2.000    
     MINIMUM TIME INCREMENT RATIO FOR EXTRAPOLATION TO OCCUR          0.1000    
     MAX. RATIO OF TIME INCREMENT TO STABILITY LIMIT                   1.000    
     FRACTION OF STABILITY LIMIT FOR NEW TIME INCREMENT               0.9500    
     TIME INCREMENT INCREASE FACTOR BEFORE A TIME POINT                1.000    
     GLOBAL STABILIZATION CONTROL IS NOT USED

          PRINT OF INCREMENT NUMBER, TIME, ETC., EVERY    1  INCREMENTS

     THE MAXIMUM NUMBER OF INCREMENTS IN THIS STEP IS                 1000000

          LARGE DISPLACEMENT THEORY WILL BE USED

     LINEAR EXTRAPOLATION WILL BE USED

     CHARACTERISTIC ELEMENT LENGTH     6.743E-04

     DETAILS REGARDING ACTUAL SOLUTION WAVEFRONT REQUESTED

     DETAILED OUTPUT OF DIAGNOSTICS TO DATABASE REQUESTED

     PRINT OF INCREMENT NUMBER, TIME, ETC., TO THE MESSAGE FILE EVERY     1  INCREMENTS

     ELEMENT OPERATIONS WILL BE CARRIED OUT IN PARALLEL USING  28 PROCESSORS

     PARALLEL CONTACT TRACKING ENABLED


     COLLECTING MODEL CONSTRAINT INFORMATION FOR OVERCONSTRAINT CHECKS

     COLLECTING STEP CONSTRAINT INFORMATION FOR OVERCONSTRAINT CHECKS
  
     ASYNCHRONOUS OUTPUT DATABASE FRAME FLUSH STARTED
  


  INCREMENT     1 STARTS. ATTEMPT NUMBER  1, TIME INCREMENT  5.000E-02
 
     INITIAL ELEMENT LOAD BALANCE
            PROCESS    1   THREAD     NUMBER OF ELEMENTS
                              1            1280
                              2            1536
                              3            1280
                              4            1280
                              5            1280
                              6            1280
                              7            1536
                              8            1280
                              9            1280
                             10            1387
                             11            1536
                             12            1280
                             13            1536
                             14            1280
                             15            1280
                             16            1280
                             17            1536
                             18            1280
                             19            1280
                             20            1280
                             21            1536
                             22            1536
                             23            1280
                             24            1280
                             25            1536
                             26            1280
                             27            1280
                             28            1280
 
     INITIAL ELEMENT LOAD BALANCE
            PROCESS    1   THREAD     NUMBER OF ELEMENTS
                              1            1280
                              2            1280
                              3            1536
                              4            1536
                              5            1280
                              6            1536
                              7            1280
                              8            1280
                              9            1280
                             10            1536
                             11            1280
                             12            1280
                             13            1536
                             14            1280
                             15            1280
                             16            1280
                             17            1280
                             18            1536
                             19            1387
                             20            1536
                             21            1280
                             22            1280
                             23            1536
                             24            1280
                             25            1280
                             26            1280
                             27            1280
                             28            1280

  NUMBER OF EQUATIONS =    208893     NUMBER OF RHS =    1
  NUMBER OF FLOATING PT. OPERATIONS =  1.42E+11

  USING THE DIRECT SOLVER WITH  28 PROCESSORS

     CHECK POINT   START OF SOLVER    

     CHECK POINT  END OF SOLVER       

       ELAPSED USER TIME (SEC)      =   34.170    
       ELAPSED SYSTEM TIME (SEC)    =   2.2800    
       ELAPSED TOTAL CPU TIME (SEC) =   36.450    
       ELAPSED WALLCLOCK TIME (SEC) =          2

               CONVERGENCE CHECKS FOR EQUILIBRIUM ITERATION     1


 AVERAGE FORCE                      3.859E-07   TIME AVG. FORCE       3.859E-07
 LARGEST RESIDUAL FORCE            -3.273E-05   AT NODE      38505   DOF  3
 LARGEST INCREMENT OF DISP.        -1.998E-05   AT NODE      18127   DOF  2
 LARGEST CORRECTION TO DISP.       -1.998E-05   AT NODE      18127   DOF  2
          FORCE     EQUILIBRIUM NOT ACHIEVED WITHIN TOLERANCE.

  NUMBER OF EQUATIONS =    208893     NUMBER OF RHS =    1
  NUMBER OF FLOATING PT. OPERATIONS =  1.42E+11

  USING THE DIRECT SOLVER WITH  28 PROCESSORS

     CHECK POINT   START OF SOLVER    

     CHECK POINT  END OF SOLVER       

       ELAPSED USER TIME (SEC)      =   30.780    
       ELAPSED SYSTEM TIME (SEC)    =   1.7800    
       ELAPSED TOTAL CPU TIME (SEC) =   32.560    
       ELAPSED WALLCLOCK TIME (SEC) =          2

               CONVERGENCE CHECKS FOR EQUILIBRIUM ITERATION     2


 AVERAGE FORCE                      3.943E-07   TIME AVG. FORCE       3.943E-07
 LARGEST RESIDUAL FORCE             1.821E-07   AT NODE      34857   DOF  3
 LARGEST INCREMENT OF DISP.        -1.985E-05   AT NODE      24155   DOF  2
 LARGEST CORRECTION TO DISP.       -3.594E-07   AT NODE       6388   DOF  2
          FORCE     EQUILIBRIUM NOT ACHIEVED WITHIN TOLERANCE.

  NUMBER OF EQUATIONS =    208893     NUMBER OF RHS =    1
  NUMBER OF FLOATING PT. OPERATIONS =  1.42E+11

  USING THE DIRECT SOLVER WITH  28 PROCESSORS

     CHECK POINT   START OF SOLVER    

     CHECK POINT  END OF SOLVER       

       ELAPSED USER TIME (SEC)      =   28.730    
       ELAPSED SYSTEM TIME (SEC)    =   1.3300    
       ELAPSED TOTAL CPU TIME (SEC) =   30.060    
       ELAPSED WALLCLOCK TIME (SEC) =          2

               CONVERGENCE CHECKS FOR EQUILIBRIUM ITERATION     3


 AVERAGE FORCE                      3.942E-07   TIME AVG. FORCE       3.942E-07
 LARGEST RESIDUAL FORCE             1.191E-10   AT NODE      34725   DOF  3
 LARGEST INCREMENT OF DISP.        -1.986E-05   AT NODE      24155   DOF  2
 LARGEST CORRECTION TO DISP.        2.874E-08   AT NODE       9510   DOF  1
          THE FORCE     EQUILIBRIUM EQUATIONS HAVE CONVERGED

 ITERATION SUMMARY FOR THE INCREMENT:   3 TOTAL ITERATIONS, OF WHICH
   0 ARE SEVERE DISCONTINUITY ITERATIONS AND  3 ARE EQUILIBRIUM ITERATIONS.

 TIME INCREMENT COMPLETED  5.000E-02,  FRACTION OF STEP COMPLETED  5.000E-02
 STEP TIME COMPLETED       5.000E-02,  TOTAL TIME COMPLETED        5.000E-02
  
     ASYNCHRONOUS OUTPUT DATABASE FRAME FLUSH STARTED
  


  INCREMENT     2 STARTS. ATTEMPT NUMBER  1, TIME INCREMENT  5.000E-02


     ***THE STATIC STABILIZATION DAMPING FACTOR HAS BEEN CALCULATED.
     FOR THE REMAINDER OF THIS STEP IT WILL HAVE THE VALUE  1.14921E+06

  NUMBER OF EQUATIONS =    208893     NUMBER OF RHS =    1
  NUMBER OF FLOATING PT. OPERATIONS =  1.42E+11

  USING THE DIRECT SOLVER WITH  28 PROCESSORS

     CHECK POINT   START OF SOLVER    

     CHECK POINT  END OF SOLVER       

       ELAPSED USER TIME (SEC)      =   28.070    
       ELAPSED SYSTEM TIME (SEC)    =   1.1400    
       ELAPSED TOTAL CPU TIME (SEC) =   29.210    
       ELAPSED WALLCLOCK TIME (SEC) =          2

               CONVERGENCE CHECKS FOR EQUILIBRIUM ITERATION     1


 AVERAGE FORCE                      1.055E-06   TIME AVG. FORCE       7.244E-07
 LARGEST RESIDUAL FORCE             4.082E-06   AT NODE      34725   DOF  3
 LARGEST INCREMENT OF DISP.        -2.209E-05   AT NODE       6767   DOF  2
 LARGEST CORRECTION TO DISP.        3.380E-06   AT NODE       9511   DOF  1
          FORCE     EQUILIBRIUM NOT ACHIEVED WITHIN TOLERANCE.

  NUMBER OF EQUATIONS =    208893     NUMBER OF RHS =    1
  NUMBER OF FLOATING PT. OPERATIONS =  1.42E+11

  USING THE DIRECT SOLVER WITH  28 PROCESSORS

     CHECK POINT   START OF SOLVER    

     CHECK POINT  END OF SOLVER       

       ELAPSED USER TIME (SEC)      =   29.940    
       ELAPSED SYSTEM TIME (SEC)    =   1.4000    
       ELAPSED TOTAL CPU TIME (SEC) =   31.340    
       ELAPSED WALLCLOCK TIME (SEC) =          2

               CONVERGENCE CHECKS FOR EQUILIBRIUM ITERATION     2


 AVERAGE FORCE                      1.051E-06   TIME AVG. FORCE       7.225E-07
 LARGEST RESIDUAL FORCE             1.930E-07   AT NODE      34857   DOF  3
 LARGEST INCREMENT OF DISP.        -2.205E-05   AT NODE       6767   DOF  2
 LARGEST CORRECTION TO DISP.       -2.196E-07   AT NODE       6388   DOF  2
          FORCE     EQUILIBRIUM NOT ACHIEVED WITHIN TOLERANCE.

  NUMBER OF EQUATIONS =    208893     NUMBER OF RHS =    1
  NUMBER OF FLOATING PT. OPERATIONS =  1.42E+11

  USING THE DIRECT SOLVER WITH  28 PROCESSORS

     CHECK POINT   START OF SOLVER    

     CHECK POINT  END OF SOLVER       

       ELAPSED USER TIME (SEC)      =   28.830    
       ELAPSED SYSTEM TIME (SEC)    =   1.3600    
       ELAPSED TOTAL CPU TIME (SEC) =   30.190    
       ELAPSED WALLCLOCK TIME (SEC) =          2

               CONVERGENCE CHECKS FOR EQUILIBRIUM ITERATION     3


 AVERAGE FORCE                      1.051E-06   TIME AVG. FORCE       7.225E-07
 LARGEST RESIDUAL FORCE             4.589E-11   AT NODE      34857   DOF  3
 LARGEST INCREMENT OF DISP.        -2.205E-05   AT NODE       6767   DOF  2
 LARGEST CORRECTION TO DISP.       -1.701E-09   AT NODE      34857   DOF  2
          THE FORCE     EQUILIBRIUM EQUATIONS HAVE CONVERGED
          TIME INCREMENT MAY NOW INCREASE TO    7.500E-02

 ITERATION SUMMARY FOR THE INCREMENT:   3 TOTAL ITERATIONS, OF WHICH
   0 ARE SEVERE DISCONTINUITY ITERATIONS AND  3 ARE EQUILIBRIUM ITERATIONS.

 TIME INCREMENT COMPLETED  5.000E-02,  FRACTION OF STEP COMPLETED  0.100    
 STEP TIME COMPLETED       0.100    ,  TOTAL TIME COMPLETED        0.100    
  
     ASYNCHRONOUS OUTPUT DATABASE FRAME FLUSH STARTED
  


  INCREMENT     3 STARTS. ATTEMPT NUMBER  1, TIME INCREMENT  7.500E-02

  NUMBER OF EQUATIONS =    208893     NUMBER OF RHS =    1
  NUMBER OF FLOATING PT. OPERATIONS =  1.42E+11

  USING THE DIRECT SOLVER WITH  28 PROCESSORS

     CHECK POINT   START OF SOLVER    

     CHECK POINT  END OF SOLVER       

       ELAPSED USER TIME (SEC)      =   29.180    
       ELAPSED SYSTEM TIME (SEC)    =   1.1900    
       ELAPSED TOTAL CPU TIME (SEC) =   30.370    
       ELAPSED WALLCLOCK TIME (SEC) =          2

               CONVERGENCE CHECKS FOR EQUILIBRIUM ITERATION     1


 AVERAGE FORCE                      1.854E-06   TIME AVG. FORCE       1.100E-06
 LARGEST RESIDUAL FORCE            -9.262E-06   AT NODE      34857   DOF  2
 LARGEST INCREMENT OF DISP.        -3.511E-05   AT NODE      35296   DOF  2
 LARGEST CORRECTION TO DISP.        6.298E-06   AT NODE       9510   DOF  1
          FORCE     EQUILIBRIUM NOT ACHIEVED WITHIN TOLERANCE.

  NUMBER OF EQUATIONS =    208893     NUMBER OF RHS =    1
  NUMBER OF FLOATING PT. OPERATIONS =  1.42E+11

  USING THE DIRECT SOLVER WITH  28 PROCESSORS

     CHECK POINT   START OF SOLVER    

     CHECK POINT  END OF SOLVER       

       ELAPSED USER TIME (SEC)      =   31.290    
       ELAPSED SYSTEM TIME (SEC)    =   1.6300    
       ELAPSED TOTAL CPU TIME (SEC) =   32.920    
       ELAPSED WALLCLOCK TIME (SEC) =          2

               CONVERGENCE CHECKS FOR EQUILIBRIUM ITERATION     2


 AVERAGE FORCE                      1.844E-06   TIME AVG. FORCE       1.096E-06
 LARGEST RESIDUAL FORCE             1.286E-06   AT NODE      34857   DOF  3
 LARGEST INCREMENT OF DISP.        -3.505E-05   AT NODE       6767   DOF  2
 LARGEST CORRECTION TO DISP.       -6.574E-07   AT NODE       5694   DOF  2
          FORCE     EQUILIBRIUM NOT ACHIEVED WITHIN TOLERANCE.

  NUMBER OF EQUATIONS =    208893     NUMBER OF RHS =    1
  NUMBER OF FLOATING PT. OPERATIONS =  1.42E+11

  USING THE DIRECT SOLVER WITH  28 PROCESSORS

     CHECK POINT   START OF SOLVER    

     CHECK POINT  END OF SOLVER       

       ELAPSED USER TIME (SEC)      =   29.230    
       ELAPSED SYSTEM TIME (SEC)    =   1.6500    
       ELAPSED TOTAL CPU TIME (SEC) =   30.880    
       ELAPSED WALLCLOCK TIME (SEC) =          2

               CONVERGENCE CHECKS FOR EQUILIBRIUM ITERATION     3


 AVERAGE FORCE                      1.844E-06   TIME AVG. FORCE       1.096E-06
 LARGEST RESIDUAL FORCE             3.415E-09   AT NODE      34857   DOF  3
 LARGEST INCREMENT OF DISP.        -3.505E-05   AT NODE       6767   DOF  2
 LARGEST CORRECTION TO DISP.        1.784E-08   AT NODE       2242   DOF  1
          THE FORCE     EQUILIBRIUM EQUATIONS HAVE CONVERGED
          TIME INCREMENT MAY NOW INCREASE TO    0.113    

 ITERATION SUMMARY FOR THE INCREMENT:   3 TOTAL ITERATIONS, OF WHICH
   0 ARE SEVERE DISCONTINUITY ITERATIONS AND  3 ARE EQUILIBRIUM ITERATIONS.

 TIME INCREMENT COMPLETED  7.500E-02,  FRACTION OF STEP COMPLETED  0.175    
 STEP TIME COMPLETED       0.175    ,  TOTAL TIME COMPLETED        0.175    
  
     ASYNCHRONOUS OUTPUT DATABASE FRAME FLUSH STARTED
  


  INCREMENT     4 STARTS. ATTEMPT NUMBER  1, TIME INCREMENT  0.113    

  NUMBER OF EQUATIONS =    208893     NUMBER OF RHS =    1
  NUMBER OF FLOATING PT. OPERATIONS =  1.42E+11

  USING THE DIRECT SOLVER WITH  28 PROCESSORS

     CHECK POINT   START OF SOLVER    

     CHECK POINT  END OF SOLVER       

       ELAPSED USER TIME (SEC)      =   27.990    
       ELAPSED SYSTEM TIME (SEC)    =   1.3100    
       ELAPSED TOTAL CPU TIME (SEC) =   29.300    
       ELAPSED WALLCLOCK TIME (SEC) =          2

               CONVERGENCE CHECKS FOR EQUILIBRIUM ITERATION     1


 AVERAGE FORCE                      3.083E-06   TIME AVG. FORCE       1.593E-06
 LARGEST RESIDUAL FORCE            -1.546E-05   AT NODE      34857   DOF  2
 LARGEST INCREMENT OF DISP.        -5.394E-05   AT NODE      35296   DOF  2
 LARGEST CORRECTION TO DISP.        1.230E-05   AT NODE       8366   DOF  1
          FORCE     EQUILIBRIUM NOT ACHIEVED WITHIN TOLERANCE.

  NUMBER OF EQUATIONS =    208893     NUMBER OF RHS =    1
  NUMBER OF FLOATING PT. OPERATIONS =  1.42E+11

  USING THE DIRECT SOLVER WITH  28 PROCESSORS

     CHECK POINT   START OF SOLVER    

     CHECK POINT  END OF SOLVER       

       ELAPSED USER TIME (SEC)      =   28.270    
       ELAPSED SYSTEM TIME (SEC)    =   1.3200    
       ELAPSED TOTAL CPU TIME (SEC) =   29.590    
       ELAPSED WALLCLOCK TIME (SEC) =          2

               CONVERGENCE CHECKS FOR EQUILIBRIUM ITERATION     2


 AVERAGE FORCE                      3.047E-06   TIME AVG. FORCE       1.584E-06
 LARGEST RESIDUAL FORCE             2.849E-06   AT NODE      34857   DOF  3
 LARGEST INCREMENT OF DISP.        -5.361E-05   AT NODE      35296   DOF  2
 LARGEST CORRECTION TO DISP.       -2.090E-06   AT NODE       5694   DOF  2
          FORCE     EQUILIBRIUM NOT ACHIEVED WITHIN TOLERANCE.

  NUMBER OF EQUATIONS =    208893     NUMBER OF RHS =    1
  NUMBER OF FLOATING PT. OPERATIONS =  1.42E+11

  USING THE DIRECT SOLVER WITH  28 PROCESSORS

     CHECK POINT   START OF SOLVER    

     CHECK POINT  END OF SOLVER       

       ELAPSED USER TIME (SEC)      =   27.700    
       ELAPSED SYSTEM TIME (SEC)    =   1.7500    
       ELAPSED TOTAL CPU TIME (SEC) =   29.450    
       ELAPSED WALLCLOCK TIME (SEC) =          2

               CONVERGENCE CHECKS FOR EQUILIBRIUM ITERATION     3


 AVERAGE FORCE                      3.044E-06   TIME AVG. FORCE       1.583E-06
 LARGEST RESIDUAL FORCE             2.617E-08   AT NODE      34857   DOF  3
 LARGEST INCREMENT OF DISP.        -5.360E-05   AT NODE      35296   DOF  2
 LARGEST CORRECTION TO DISP.        8.462E-08   AT NODE          1   DOF  1
          FORCE     EQUILIBRIUM NOT ACHIEVED WITHIN TOLERANCE.

  NUMBER OF EQUATIONS =    208893     NUMBER OF RHS =    1
  NUMBER OF FLOATING PT. OPERATIONS =  1.42E+11

  USING THE DIRECT SOLVER WITH  28 PROCESSORS

     CHECK POINT   START OF SOLVER    

     CHECK POINT  END OF SOLVER       

       ELAPSED USER TIME (SEC)      =   29.450    
       ELAPSED SYSTEM TIME (SEC)    =   1.3300    
       ELAPSED TOTAL CPU TIME (SEC) =   30.780    
       ELAPSED WALLCLOCK TIME (SEC) =          2

               CONVERGENCE CHECKS FOR EQUILIBRIUM ITERATION     4


 AVERAGE FORCE                      3.044E-06   TIME AVG. FORCE       1.583E-06
 LARGEST RESIDUAL FORCE            -9.006E-12   AT NODE      58454   DOF  3
 LARGEST INCREMENT OF DISP.        -5.360E-05   AT NODE      35296   DOF  2
 LARGEST CORRECTION TO DISP.        5.989E-10   AT NODE      34826   DOF  1
          THE FORCE     EQUILIBRIUM EQUATIONS HAVE CONVERGED
          TIME INCREMENT MAY NOW INCREASE TO    0.169    

 ITERATION SUMMARY FOR THE INCREMENT:   4 TOTAL ITERATIONS, OF WHICH
   0 ARE SEVERE DISCONTINUITY ITERATIONS AND  4 ARE EQUILIBRIUM ITERATIONS.

 TIME INCREMENT COMPLETED  0.113    ,  FRACTION OF STEP COMPLETED  0.288    
 STEP TIME COMPLETED       0.288    ,  TOTAL TIME COMPLETED        0.288    
  
     ASYNCHRONOUS OUTPUT DATABASE FRAME FLUSH STARTED
  


  INCREMENT     5 STARTS. ATTEMPT NUMBER  1, TIME INCREMENT  0.169    

  NUMBER OF EQUATIONS =    208893     NUMBER OF RHS =    1
  NUMBER OF FLOATING PT. OPERATIONS =  1.42E+11

  USING THE DIRECT SOLVER WITH  28 PROCESSORS

     CHECK POINT   START OF SOLVER    

     CHECK POINT  END OF SOLVER       

       ELAPSED USER TIME (SEC)      =   29.820    
       ELAPSED SYSTEM TIME (SEC)    =   1.3300    
       ELAPSED TOTAL CPU TIME (SEC) =   31.150    
       ELAPSED WALLCLOCK TIME (SEC) =          2

               CONVERGENCE CHECKS FOR EQUILIBRIUM ITERATION     1


 AVERAGE FORCE                      5.088E-06   TIME AVG. FORCE       2.284E-06
 LARGEST RESIDUAL FORCE             3.284E-05   AT NODE      32539   DOF  3
 LARGEST INCREMENT OF DISP.         8.975E-05   AT NODE      63017   DOF  1
 LARGEST CORRECTION TO DISP.        2.552E-05   AT NODE       8366   DOF  1
          FORCE     EQUILIBRIUM NOT ACHIEVED WITHIN TOLERANCE.

  NUMBER OF EQUATIONS =    208893     NUMBER OF RHS =    1
  NUMBER OF FLOATING PT. OPERATIONS =  1.42E+11

  USING THE DIRECT SOLVER WITH  28 PROCESSORS

     CHECK POINT   START OF SOLVER    

     CHECK POINT  END OF SOLVER       

       ELAPSED USER TIME (SEC)      =   30.090    
       ELAPSED SYSTEM TIME (SEC)    =   1.3100    
       ELAPSED TOTAL CPU TIME (SEC) =   31.400    
       ELAPSED WALLCLOCK TIME (SEC) =          2

               CONVERGENCE CHECKS FOR EQUILIBRIUM ITERATION     2


 AVERAGE FORCE                      4.910E-06   TIME AVG. FORCE       2.249E-06
 LARGEST RESIDUAL FORCE             1.015E-05   AT NODE      32539   DOF  3
 LARGEST INCREMENT OF DISP.         8.419E-05   AT NODE      63322   DOF  1
 LARGEST CORRECTION TO DISP.       -8.288E-06   AT NODE       9494   DOF  1
          FORCE     EQUILIBRIUM NOT ACHIEVED WITHIN TOLERANCE.

  NUMBER OF EQUATIONS =    208893     NUMBER OF RHS =    1
  NUMBER OF FLOATING PT. OPERATIONS =  1.42E+11

  USING THE DIRECT SOLVER WITH  28 PROCESSORS

     CHECK POINT   START OF SOLVER    

     CHECK POINT  END OF SOLVER       

       ELAPSED USER TIME (SEC)      =   28.000    
       ELAPSED SYSTEM TIME (SEC)    =   1.3200    
       ELAPSED TOTAL CPU TIME (SEC) =   29.320    
       ELAPSED WALLCLOCK TIME (SEC) =          2

               CONVERGENCE CHECKS FOR EQUILIBRIUM ITERATION     3


 AVERAGE FORCE                      4.869E-06   TIME AVG. FORCE       2.240E-06
 LARGEST RESIDUAL FORCE            -4.027E-07   AT NODE      43115   DOF  2
 LARGEST INCREMENT OF DISP.         8.374E-05   AT NODE      63322   DOF  1
 LARGEST CORRECTION TO DISP.       -1.616E-06   AT NODE       9494   DOF  1
          FORCE     EQUILIBRIUM NOT ACHIEVED WITHIN TOLERANCE.

  NUMBER OF EQUATIONS =    208893     NUMBER OF RHS =    1
  NUMBER OF FLOATING PT. OPERATIONS =  1.42E+11

  USING THE DIRECT SOLVER WITH  28 PROCESSORS

     CHECK POINT   START OF SOLVER    

     CHECK POINT  END OF SOLVER       

       ELAPSED USER TIME (SEC)      =   29.700    
       ELAPSED SYSTEM TIME (SEC)    =   1.0400    
       ELAPSED TOTAL CPU TIME (SEC) =   30.740    
       ELAPSED WALLCLOCK TIME (SEC) =          2

               CONVERGENCE CHECKS FOR EQUILIBRIUM ITERATION     4


 AVERAGE FORCE                      4.869E-06   TIME AVG. FORCE       2.240E-06
 LARGEST RESIDUAL FORCE             8.540E-10   AT NODE      58454   DOF  3
 LARGEST INCREMENT OF DISP.         8.373E-05   AT NODE      63322   DOF  1
 LARGEST CORRECTION TO DISP.       -6.456E-08   AT NODE       9029   DOF  1
          THE FORCE     EQUILIBRIUM EQUATIONS HAVE CONVERGED
          TIME INCREMENT MAY NOW INCREASE TO    0.253    

 ITERATION SUMMARY FOR THE INCREMENT:   4 TOTAL ITERATIONS, OF WHICH
   0 ARE SEVERE DISCONTINUITY ITERATIONS AND  4 ARE EQUILIBRIUM ITERATIONS.

 TIME INCREMENT COMPLETED  0.169    ,  FRACTION OF STEP COMPLETED  0.456    
 STEP TIME COMPLETED       0.456    ,  TOTAL TIME COMPLETED        0.456    
  
     ASYNCHRONOUS OUTPUT DATABASE FRAME FLUSH STARTED
  


  INCREMENT     6 STARTS. ATTEMPT NUMBER  1, TIME INCREMENT  0.253    

  NUMBER OF EQUATIONS =    208893     NUMBER OF RHS =    1
  NUMBER OF FLOATING PT. OPERATIONS =  1.42E+11

  USING THE DIRECT SOLVER WITH  28 PROCESSORS

     CHECK POINT   START OF SOLVER    

     CHECK POINT  END OF SOLVER       

       ELAPSED USER TIME (SEC)      =   28.620    
       ELAPSED SYSTEM TIME (SEC)    =   1.2400    
       ELAPSED TOTAL CPU TIME (SEC) =   29.860    
       ELAPSED WALLCLOCK TIME (SEC) =          1

               CONVERGENCE CHECKS FOR EQUILIBRIUM ITERATION     1


 AVERAGE FORCE                      9.933E-06   TIME AVG. FORCE       3.522E-06
 LARGEST RESIDUAL FORCE             4.673E-04   AT NODE      32539   DOF  3
 LARGEST INCREMENT OF DISP.         1.824E-04   AT NODE       9029   DOF  1
 LARGEST CORRECTION TO DISP.        6.486E-05   AT NODE       9476   DOF  1
          FORCE     EQUILIBRIUM NOT ACHIEVED WITHIN TOLERANCE.

  NUMBER OF EQUATIONS =    208893     NUMBER OF RHS =    1
  NUMBER OF FLOATING PT. OPERATIONS =  1.42E+11

  USING THE DIRECT SOLVER WITH  28 PROCESSORS

     CHECK POINT   START OF SOLVER    

     CHECK POINT  END OF SOLVER       

       ELAPSED USER TIME (SEC)      =   31.210    
       ELAPSED SYSTEM TIME (SEC)    =   1.6200    
       ELAPSED TOTAL CPU TIME (SEC) =   32.830    
       ELAPSED WALLCLOCK TIME (SEC) =          2

               CONVERGENCE CHECKS FOR EQUILIBRIUM ITERATION     2


 AVERAGE FORCE                      7.835E-06   TIME AVG. FORCE       3.173E-06
 LARGEST RESIDUAL FORCE             4.041E-05   AT NODE      43115   DOF  2
 LARGEST INCREMENT OF DISP.         1.637E-04   AT NODE      32538   DOF  1
 LARGEST CORRECTION TO DISP.       -1.926E-05   AT NODE       9223   DOF  1
          FORCE     EQUILIBRIUM NOT ACHIEVED WITHIN TOLERANCE.

  NUMBER OF EQUATIONS =    208893     NUMBER OF RHS =    1
  NUMBER OF FLOATING PT. OPERATIONS =  1.42E+11

  USING THE DIRECT SOLVER WITH  28 PROCESSORS

     CHECK POINT   START OF SOLVER    

     CHECK POINT  END OF SOLVER       

       ELAPSED USER TIME (SEC)      =   32.710    
       ELAPSED SYSTEM TIME (SEC)    =   1.5900    
       ELAPSED TOTAL CPU TIME (SEC) =   34.300    
       ELAPSED WALLCLOCK TIME (SEC) =          2

               CONVERGENCE CHECKS FOR EQUILIBRIUM ITERATION     3


 AVERAGE FORCE                      8.162E-06   TIME AVG. FORCE       3.227E-06
 LARGEST RESIDUAL FORCE            -2.833E-04   AT NODE      43115   DOF  2
 LARGEST INCREMENT OF DISP.         1.360E-04   AT NODE       9223   DOF  1
 LARGEST CORRECTION TO DISP.       -3.013E-05   AT NODE       9029   DOF  1
          FORCE     EQUILIBRIUM NOT ACHIEVED WITHIN TOLERANCE.

  NUMBER OF EQUATIONS =    208893     NUMBER OF RHS =    1
  NUMBER OF FLOATING PT. OPERATIONS =  1.42E+11

  USING THE DIRECT SOLVER WITH  28 PROCESSORS

     CHECK POINT   START OF SOLVER    

     CHECK POINT  END OF SOLVER       

       ELAPSED USER TIME (SEC)      =   29.090    
       ELAPSED SYSTEM TIME (SEC)    =   1.5900    
       ELAPSED TOTAL CPU TIME (SEC) =   30.680    
       ELAPSED WALLCLOCK TIME (SEC) =          2

               CONVERGENCE CHECKS FOR EQUILIBRIUM ITERATION     4


 AVERAGE FORCE                      7.654E-06   TIME AVG. FORCE       3.143E-06
 LARGEST RESIDUAL FORCE            -2.332E-06   AT NODE      61800   DOF  2
 LARGEST INCREMENT OF DISP.         1.333E-04   AT NODE       8479   DOF  1
 LARGEST CORRECTION TO DISP.       -3.056E-06   AT NODE      11370   DOF  1
          FORCE     EQUILIBRIUM NOT ACHIEVED WITHIN TOLERANCE.

  NUMBER OF EQUATIONS =    208893     NUMBER OF RHS =    1
  NUMBER OF FLOATING PT. OPERATIONS =  1.42E+11

  USING THE DIRECT SOLVER WITH  28 PROCESSORS

     CHECK POINT   START OF SOLVER    

     CHECK POINT  END OF SOLVER       

       ELAPSED USER TIME (SEC)      =   27.880    
       ELAPSED SYSTEM TIME (SEC)    =   1.3200    
       ELAPSED TOTAL CPU TIME (SEC) =   29.200    
       ELAPSED WALLCLOCK TIME (SEC) =          2

               CONVERGENCE CHECKS FOR EQUILIBRIUM ITERATION     5


 AVERAGE FORCE                      7.651E-06   TIME AVG. FORCE       3.142E-06
 LARGEST RESIDUAL FORCE             2.686E-07   AT NODE      61801   DOF  1
 LARGEST INCREMENT OF DISP.         1.323E-04   AT NODE       8479   DOF  1
 LARGEST CORRECTION TO DISP.       -1.369E-06   AT NODE       9223   DOF  1
          FORCE     EQUILIBRIUM NOT ACHIEVED WITHIN TOLERANCE.

  NUMBER OF EQUATIONS =    208893     NUMBER OF RHS =    1
  NUMBER OF FLOATING PT. OPERATIONS =  1.42E+11

  USING THE DIRECT SOLVER WITH  28 PROCESSORS

     CHECK POINT   START OF SOLVER    

     CHECK POINT  END OF SOLVER       

       ELAPSED USER TIME (SEC)      =   28.680    
       ELAPSED SYSTEM TIME (SEC)    =   1.3400    
       ELAPSED TOTAL CPU TIME (SEC) =   30.020    
       ELAPSED WALLCLOCK TIME (SEC) =          1

               CONVERGENCE CHECKS FOR EQUILIBRIUM ITERATION     6


 AVERAGE FORCE                      7.651E-06   TIME AVG. FORCE       3.142E-06
 LARGEST RESIDUAL FORCE             3.668E-10   AT NODE      37119   DOF  1
 LARGEST INCREMENT OF DISP.         1.323E-04   AT NODE       8479   DOF  1
 LARGEST CORRECTION TO DISP.        6.157E-09   AT NODE      37119   DOF  1
          THE FORCE     EQUILIBRIUM EQUATIONS HAVE CONVERGED

 ITERATION SUMMARY FOR THE INCREMENT:   6 TOTAL ITERATIONS, OF WHICH
   0 ARE SEVERE DISCONTINUITY ITERATIONS AND  6 ARE EQUILIBRIUM ITERATIONS.

 TIME INCREMENT COMPLETED  0.253    ,  FRACTION OF STEP COMPLETED  0.709    
 STEP TIME COMPLETED       0.709    ,  TOTAL TIME COMPLETED        0.709    
  
     ASYNCHRONOUS OUTPUT DATABASE FRAME FLUSH STARTED
  


  INCREMENT     7 STARTS. ATTEMPT NUMBER  1, TIME INCREMENT  0.253    

  NUMBER OF EQUATIONS =    208893     NUMBER OF RHS =    1
  NUMBER OF FLOATING PT. OPERATIONS =  1.42E+11

  USING THE DIRECT SOLVER WITH  28 PROCESSORS

     CHECK POINT   START OF SOLVER    

     CHECK POINT  END OF SOLVER       

       ELAPSED USER TIME (SEC)      =   29.010    
       ELAPSED SYSTEM TIME (SEC)    =   1.1400    
       ELAPSED TOTAL CPU TIME (SEC) =   30.150    
       ELAPSED WALLCLOCK TIME (SEC) =          2

               CONVERGENCE CHECKS FOR EQUILIBRIUM ITERATION     1


 AVERAGE FORCE                      1.048E-05   TIME AVG. FORCE       4.190E-06
 LARGEST RESIDUAL FORCE             2.406E-05   AT NODE      38169   DOF  3
 LARGEST INCREMENT OF DISP.         1.240E-04   AT NODE       8479   DOF  1
 LARGEST CORRECTION TO DISP.        1.868E-05   AT NODE      53053   DOF  2
          FORCE     EQUILIBRIUM NOT ACHIEVED WITHIN TOLERANCE.

  NUMBER OF EQUATIONS =    208893     NUMBER OF RHS =    1
  NUMBER OF FLOATING PT. OPERATIONS =  1.42E+11

  USING THE DIRECT SOLVER WITH  28 PROCESSORS

     CHECK POINT   START OF SOLVER    

     CHECK POINT  END OF SOLVER       

       ELAPSED USER TIME (SEC)      =   31.360    
       ELAPSED SYSTEM TIME (SEC)    =   1.2300    
       ELAPSED TOTAL CPU TIME (SEC) =   32.590    
       ELAPSED WALLCLOCK TIME (SEC) =          2

               CONVERGENCE CHECKS FOR EQUILIBRIUM ITERATION     2


 AVERAGE FORCE                      1.048E-05   TIME AVG. FORCE       4.190E-06
 LARGEST RESIDUAL FORCE             2.124E-06   AT NODE      32539   DOF  3
 LARGEST INCREMENT OF DISP.         1.265E-04   AT NODE      63017   DOF  1
 LARGEST CORRECTION TO DISP.        3.274E-06   AT NODE       6388   DOF  2
          FORCE     EQUILIBRIUM NOT ACHIEVED WITHIN TOLERANCE.

  NUMBER OF EQUATIONS =    208893     NUMBER OF RHS =    1
  NUMBER OF FLOATING PT. OPERATIONS =  1.42E+11

  USING THE DIRECT SOLVER WITH  28 PROCESSORS

     CHECK POINT   START OF SOLVER    

     CHECK POINT  END OF SOLVER       

       ELAPSED USER TIME (SEC)      =   33.220    
       ELAPSED SYSTEM TIME (SEC)    =   1.6200    
       ELAPSED TOTAL CPU TIME (SEC) =   34.840    
       ELAPSED WALLCLOCK TIME (SEC) =          2

               CONVERGENCE CHECKS FOR EQUILIBRIUM ITERATION     3


 AVERAGE FORCE                      1.048E-05   TIME AVG. FORCE       4.190E-06
 LARGEST RESIDUAL FORCE             9.230E-09   AT NODE      59633   DOF  3
 LARGEST INCREMENT OF DISP.         1.265E-04   AT NODE      63017   DOF  1
 LARGEST CORRECTION TO DISP.       -3.454E-08   AT NODE      59633   DOF  1
          THE FORCE     EQUILIBRIUM EQUATIONS HAVE CONVERGED

 ITERATION SUMMARY FOR THE INCREMENT:   3 TOTAL ITERATIONS, OF WHICH
   0 ARE SEVERE DISCONTINUITY ITERATIONS AND  3 ARE EQUILIBRIUM ITERATIONS.

 TIME INCREMENT COMPLETED  0.253    ,  FRACTION OF STEP COMPLETED  0.963    
 STEP TIME COMPLETED       0.963    ,  TOTAL TIME COMPLETED        0.963    
  
     ASYNCHRONOUS OUTPUT DATABASE FRAME FLUSH STARTED
  


  INCREMENT     8 STARTS. ATTEMPT NUMBER  1, TIME INCREMENT  3.750E-02

  NUMBER OF EQUATIONS =    208893     NUMBER OF RHS =    1
  NUMBER OF FLOATING PT. OPERATIONS =  1.42E+11

  USING THE DIRECT SOLVER WITH  28 PROCESSORS

     CHECK POINT   START OF SOLVER    

     CHECK POINT  END OF SOLVER       

       ELAPSED USER TIME (SEC)      =   30.090    
       ELAPSED SYSTEM TIME (SEC)    =   1.5000    
       ELAPSED TOTAL CPU TIME (SEC) =   31.590    
       ELAPSED WALLCLOCK TIME (SEC) =          1

               CONVERGENCE CHECKS FOR EQUILIBRIUM ITERATION     1


 AVERAGE FORCE                      1.091E-05   TIME AVG. FORCE       5.030E-06
 LARGEST RESIDUAL FORCE            -1.289E-07   AT NODE      59674   DOF  3
 LARGEST INCREMENT OF DISP.         1.813E-05   AT NODE      63017   DOF  1
 LARGEST CORRECTION TO DISP.        1.260E-06   AT NODE      46998   DOF  2
          FORCE     EQUILIBRIUM NOT ACHIEVED WITHIN TOLERANCE.

  NUMBER OF EQUATIONS =    208893     NUMBER OF RHS =    1
  NUMBER OF FLOATING PT. OPERATIONS =  1.42E+11

  USING THE DIRECT SOLVER WITH  28 PROCESSORS

     CHECK POINT   START OF SOLVER    

     CHECK POINT  END OF SOLVER       

       ELAPSED USER TIME (SEC)      =   31.350    
       ELAPSED SYSTEM TIME (SEC)    =   1.3900    
       ELAPSED TOTAL CPU TIME (SEC) =   32.740    
       ELAPSED WALLCLOCK TIME (SEC) =          2

               CONVERGENCE CHECKS FOR EQUILIBRIUM ITERATION     2


 AVERAGE FORCE                      1.091E-05   TIME AVG. FORCE       5.030E-06
 LARGEST RESIDUAL FORCE             4.625E-09   AT NODE      59633   DOF  3
 LARGEST INCREMENT OF DISP.         1.814E-05   AT NODE      63017   DOF  1
 LARGEST CORRECTION TO DISP.       -2.329E-08   AT NODE      38671   DOF  3
          THE FORCE     EQUILIBRIUM EQUATIONS HAVE CONVERGED

 ITERATION SUMMARY FOR THE INCREMENT:   2 TOTAL ITERATIONS, OF WHICH
   0 ARE SEVERE DISCONTINUITY ITERATIONS AND  2 ARE EQUILIBRIUM ITERATIONS.

 TIME INCREMENT COMPLETED  3.750E-02,  FRACTION OF STEP COMPLETED   1.00    
 STEP TIME COMPLETED        1.00    ,  TOTAL TIME COMPLETED         1.00    
1

   Abaqus 3DEXPERIENCE R2018x HotFix 1                                  Date 03-Aug-2023   Time 01:01:47
   For use by TEXAS A_M UNIVERSITY SYSTEM under license from Dassault Systemes or its subsidiary.

 Job: PVloop-total                                                               
                                                                                 
 STEP    2     INCREMENT     1     STEP TIME    0.00    


                        S T E P       2     S T A T I C   A N A L Y S I S


                                                                                          

     AUTOMATIC TIME CONTROL WITH -
          A SUGGESTED INITIAL TIME INCREMENT OF                1.250E-02
          AND A TOTAL TIME PERIOD OF                            1.00    
          THE MINIMUM TIME INCREMENT ALLOWED IS                1.000E-10
          THE MAXIMUM TIME INCREMENT ALLOWED IS                 1.00    

     LINEAR EQUATION SOLVER TYPE         DIRECT SPARSE

     AUTOMATIC STABILIZATION WITH DISSIPATED ENERGY FRACTION =  5.000E-03

 CONVERGENCE TOLERANCE PARAMETERS FOR FORCE    
     CRITERION FOR RESIDUAL FORCE     FOR A NONLINEAR PROBLEM          5.000E-03
     CRITERION FOR DISP.    CORRECTION IN A NONLINEAR PROBLEM          1.000E-02
     INIT. VALUE OF TIME AVG. FORCE     IS TIME AVG. FORCE     IN PREVIOUS STEP
     AVERAGE FORCE     IS TIME AVERAGE FORCE    
     ALTERNATE CRIT. FOR RESIDUAL FORCE     FOR A NONLINEAR PROBLEM    2.000E-02
     CRITERION FOR ZERO FORCE     RELATIVE TO TIME AVRG. FORCE         1.000E-05
     CRITERION FOR RESIDUAL FORCE     WHEN THERE IS ZERO FLUX          1.000E-05
     CRITERION FOR DISP.    CORRECTION WHEN THERE IS ZERO FLUX         1.000E-03
     CRITERION FOR RESIDUAL FORCE     FOR A LINEAR INCREMENT           1.000E-08
     FIELD CONVERSION RATIO                                             1.00    
     CRITERION FOR ZERO FORCE     REL. TO TIME AVRG. MAX. FORCE        1.000E-05
     CRITERION FOR ZERO DISP.    RELATIVE TO CHARACTERISTIC LENGTH     1.000E-08

     VOLUMETRIC STRAIN COMPATIBILITY TOLERANCE FOR HYBRID SOLIDS       1.000E-05
     AXIAL STRAIN COMPATIBILITY TOLERANCE FOR HYBRID BEAMS             1.000E-05
     TRANS. SHEAR STRAIN COMPATIBILITY TOLERANCE FOR HYBRID BEAMS      1.000E-05
     SOFT CONTACT CONSTRAINT COMPATIBILITY TOLERANCE FOR P>P0          5.000E-03
     SOFT CONTACT CONSTRAINT COMPATIBILITY TOLERANCE FOR P=0.0         0.100    
     CONTACT FORCE ERROR TOLERANCE FOR CONVERT SDI=YES                 1.00    
     DISPLACEMENT COMPATIBILITY TOLERANCE FOR DCOUP ELEMENTS           1.000E-05
     ROTATION COMPATIBILITY TOLERANCE FOR DCOUP ELEMENTS               1.000E-05

 EQUILIBRIUM WILL BE CHECKED FOR SEVERE DISCONTINUITY ITERATIONS

 TIME INCREMENTATION CONTROL PARAMETERS:
     FIRST EQUILIBRIUM ITERATION FOR CONSECUTIVE DIVERGENCE CHECK              4
     EQUILIBRIUM ITERATION AT WHICH LOG. CONVERGENCE RATE CHECK BEGINS         8
     EQUILIBRIUM ITERATION AFTER WHICH ALTERNATE RESIDUAL IS USED              9
     MAXIMUM EQUILIBRIUM ITERATIONS ALLOWED                                   16
     EQUILIBRIUM ITERATION COUNT FOR CUT-BACK IN NEXT INCREMENT               10
     MAXIMUM EQUILIB. ITERS IN TWO INCREMENTS FOR TIME INCREMENT INCREASE      4
     MAXIMUM ITERATIONS FOR SEVERE DISCONTINUITIES                            50
     MAXIMUM ATTEMPTS ALLOWED IN AN INCREMENT                                  5
     MAXIMUM DISCON. ITERS IN TWO INCREMENTS FOR TIME INCREMENT INCREASE      50
     MAXIMUM CONTACT AUGMENTATIONS FOR *SURFACE BEHAVIOR,AUGMENTED LAGRANGE   50
     CUT-BACK FACTOR AFTER DIVERGENCE                                 0.2500    
     CUT-BACK FACTOR FOR TOO SLOW CONVERGENCE                         0.5000    
     CUT-BACK FACTOR AFTER TOO MANY EQUILIBRIUM ITERATIONS            0.7500    
     CUT-BACK FACTOR AFTER TOO MANY SEVERE DISCONTINUITY ITERATIONS   0.2500    
     CUT-BACK FACTOR AFTER PROBLEMS IN ELEMENT ASSEMBLY               0.2500    
     INCREASE FACTOR AFTER TWO INCREMENTS THAT CONVERGE QUICKLY        1.500    
     MAX. TIME INCREMENT INCREASE FACTOR ALLOWED                       1.500    
     MAX. TIME INCREMENT INCREASE FACTOR ALLOWED (DYNAMICS)            1.250    
     MAX. TIME INCREMENT INCREASE FACTOR ALLOWED (DIFFUSION)           2.000    
     MINIMUM TIME INCREMENT RATIO FOR EXTRAPOLATION TO OCCUR          0.1000    
     MAX. RATIO OF TIME INCREMENT TO STABILITY LIMIT                   1.000    
     FRACTION OF STABILITY LIMIT FOR NEW TIME INCREMENT               0.9500    
     TIME INCREMENT INCREASE FACTOR BEFORE A TIME POINT                1.000    
     GLOBAL STABILIZATION CONTROL IS NOT USED

          PRINT OF INCREMENT NUMBER, TIME, ETC., EVERY    1  INCREMENTS

     THE MAXIMUM NUMBER OF INCREMENTS IN THIS STEP IS                 1000000

          LARGE DISPLACEMENT THEORY WILL BE USED

     LINEAR EXTRAPOLATION WILL BE USED

     CHARACTERISTIC ELEMENT LENGTH     6.743E-04

     DETAILS REGARDING ACTUAL SOLUTION WAVEFRONT REQUESTED

     DETAILED OUTPUT OF DIAGNOSTICS TO DATABASE REQUESTED

     PRINT OF INCREMENT NUMBER, TIME, ETC., TO THE MESSAGE FILE EVERY     1  INCREMENTS

     ELEMENT OPERATIONS WILL BE CARRIED OUT IN PARALLEL USING  28 PROCESSORS

     COLLECTING STEP CONSTRAINT INFORMATION FOR OVERCONSTRAINT CHECKS
  
     ASYNCHRONOUS OUTPUT DATABASE FRAME FLUSH STARTED
  


  INCREMENT     1 STARTS. ATTEMPT NUMBER  1, TIME INCREMENT  1.250E-02
 
     INITIAL ELEMENT LOAD BALANCE
            PROCESS    1   THREAD     NUMBER OF ELEMENTS
                              1            1280
                              2            1536
                              3            1280
                              4            1280
                              5            1536
                              6            1280
                              7            1280
                              8            1280
                              9            1280
                             10            1280
                             11            1280
                             12            1387
                             13            1280
                             14            1280
                             15            1280
                             16            1536
                             17            1280
                             18            1280
                             19            1280
                             20            1280
                             21            1536
                             22            1280
                             23            1536
                             24            1280
                             25            1536
                             26            1536
                             27            1536
                             28            1280
 
     INITIAL ELEMENT LOAD BALANCE
            PROCESS    1   THREAD     NUMBER OF ELEMENTS
                              1            1280
                              2            1280
                              3            1280
                              4            1280
                              5            1280
                              6            1387
                              7            1280
                              8            1536
                              9            1536
                             10            1280
                             11            1280
                             12            1280
                             13            1280
                             14            1280
                             15            1536
                             16            1280
                             17            1536
                             18            1280
                             19            1280
                             20            1536
                             21            1280
                             22            1536
                             23            1280
                             24            1280
                             25            1536
                             26            1536
                             27            1280
                             28            1280

  NUMBER OF EQUATIONS =    208893     NUMBER OF RHS =    1
  NUMBER OF FLOATING PT. OPERATIONS =  1.42E+11

  USING THE DIRECT SOLVER WITH  28 PROCESSORS

     CHECK POINT   START OF SOLVER    

     CHECK POINT  END OF SOLVER       

       ELAPSED USER TIME (SEC)      =   26.190    
       ELAPSED SYSTEM TIME (SEC)    =   1.3900    
       ELAPSED TOTAL CPU TIME (SEC) =   27.580    
       ELAPSED WALLCLOCK TIME (SEC) =          1

               CONVERGENCE CHECKS FOR EQUILIBRIUM ITERATION     1


 AVERAGE FORCE                      1.145E-05   TIME AVG. FORCE       1.145E-05
 LARGEST RESIDUAL FORCE             3.434E-05   AT NODE      14118   DOF  2
 LARGEST INCREMENT OF DISP.         1.489E-05   AT NODE      69471   DOF  1
 LARGEST CORRECTION TO DISP.        1.489E-05   AT NODE      69471   DOF  1
          FORCE     EQUILIBRIUM NOT ACHIEVED WITHIN TOLERANCE.

  NUMBER OF EQUATIONS =    208893     NUMBER OF RHS =    1
  NUMBER OF FLOATING PT. OPERATIONS =  1.42E+11

  USING THE DIRECT SOLVER WITH  28 PROCESSORS

     CHECK POINT   START OF SOLVER    

     CHECK POINT  END OF SOLVER       

       ELAPSED USER TIME (SEC)      =   30.190    
       ELAPSED SYSTEM TIME (SEC)    =   1.4900    
       ELAPSED TOTAL CPU TIME (SEC) =   31.680    
       ELAPSED WALLCLOCK TIME (SEC) =          1

               CONVERGENCE CHECKS FOR EQUILIBRIUM ITERATION     2


 AVERAGE FORCE                      1.174E-05   TIME AVG. FORCE       1.174E-05
 LARGEST RESIDUAL FORCE             9.921E-07   AT NODE      38671   DOF  3
 LARGEST INCREMENT OF DISP.         1.443E-05   AT NODE      63524   DOF  1
 LARGEST CORRECTION TO DISP.       -7.468E-07   AT NODE      38671   DOF  2
          FORCE     EQUILIBRIUM NOT ACHIEVED WITHIN TOLERANCE.

  NUMBER OF EQUATIONS =    208893     NUMBER OF RHS =    1
  NUMBER OF FLOATING PT. OPERATIONS =  1.42E+11

  USING THE DIRECT SOLVER WITH  28 PROCESSORS

     CHECK POINT   START OF SOLVER    

     CHECK POINT  END OF SOLVER       

       ELAPSED USER TIME (SEC)      =   30.540    
       ELAPSED SYSTEM TIME (SEC)    =   1.3400    
       ELAPSED TOTAL CPU TIME (SEC) =   31.880    
       ELAPSED WALLCLOCK TIME (SEC) =          1

               CONVERGENCE CHECKS FOR EQUILIBRIUM ITERATION     3


 AVERAGE FORCE                      1.174E-05   TIME AVG. FORCE       1.174E-05
 LARGEST RESIDUAL FORCE             1.938E-09   AT NODE      34857   DOF  3
 LARGEST INCREMENT OF DISP.         1.443E-05   AT NODE      63524   DOF  1
 LARGEST CORRECTION TO DISP.        1.127E-08   AT NODE       4414   DOF  1
          THE FORCE     EQUILIBRIUM EQUATIONS HAVE CONVERGED

 ITERATION SUMMARY FOR THE INCREMENT:   3 TOTAL ITERATIONS, OF WHICH
   0 ARE SEVERE DISCONTINUITY ITERATIONS AND  3 ARE EQUILIBRIUM ITERATIONS.

 TIME INCREMENT COMPLETED  1.250E-02,  FRACTION OF STEP COMPLETED  1.250E-02
 STEP TIME COMPLETED       1.250E-02,  TOTAL TIME COMPLETED         1.01    


  INCREMENT     2 STARTS. ATTEMPT NUMBER  1, TIME INCREMENT  1.250E-02


     ***THE STATIC STABILIZATION DAMPING FACTOR HAS BEEN CALCULATED.
     FOR THE REMAINDER OF THIS STEP IT WILL HAVE THE VALUE  5.66579E+06

  NUMBER OF EQUATIONS =    208893     NUMBER OF RHS =    1
  NUMBER OF FLOATING PT. OPERATIONS =  1.42E+11

  USING THE DIRECT SOLVER WITH  28 PROCESSORS

     CHECK POINT   START OF SOLVER    

     CHECK POINT  END OF SOLVER       

       ELAPSED USER TIME (SEC)      =   30.280    
       ELAPSED SYSTEM TIME (SEC)    =   1.3200    
       ELAPSED TOTAL CPU TIME (SEC) =   31.600    
       ELAPSED WALLCLOCK TIME (SEC) =          2

               CONVERGENCE CHECKS FOR EQUILIBRIUM ITERATION     1


 AVERAGE FORCE                      1.272E-05   TIME AVG. FORCE       1.223E-05
 LARGEST RESIDUAL FORCE             1.314E-06   AT NODE      34857   DOF  3
 LARGEST INCREMENT OF DISP.         1.592E-05   AT NODE      63524   DOF  1
 LARGEST CORRECTION TO DISP.        1.650E-06   AT NODE       6249   DOF  1
          FORCE     EQUILIBRIUM NOT ACHIEVED WITHIN TOLERANCE.

  NUMBER OF EQUATIONS =    208893     NUMBER OF RHS =    1
  NUMBER OF FLOATING PT. OPERATIONS =  1.42E+11

  USING THE DIRECT SOLVER WITH  28 PROCESSORS

     CHECK POINT   START OF SOLVER    

     CHECK POINT  END OF SOLVER       

       ELAPSED USER TIME (SEC)      =   27.670    
       ELAPSED SYSTEM TIME (SEC)    =   1.4000    
       ELAPSED TOTAL CPU TIME (SEC) =   29.070    
       ELAPSED WALLCLOCK TIME (SEC) =          2

               CONVERGENCE CHECKS FOR EQUILIBRIUM ITERATION     2


 AVERAGE FORCE                      1.272E-05   TIME AVG. FORCE       1.223E-05
 LARGEST RESIDUAL FORCE            -7.071E-09   AT NODE      57749   DOF  3
 LARGEST INCREMENT OF DISP.         1.591E-05   AT NODE      63524   DOF  1
 LARGEST CORRECTION TO DISP.        3.044E-08   AT NODE      59633   DOF  3
          THE FORCE     EQUILIBRIUM EQUATIONS HAVE CONVERGED
          TIME INCREMENT MAY NOW INCREASE TO    1.875E-02

 ITERATION SUMMARY FOR THE INCREMENT:   2 TOTAL ITERATIONS, OF WHICH
   0 ARE SEVERE DISCONTINUITY ITERATIONS AND  2 ARE EQUILIBRIUM ITERATIONS.

 TIME INCREMENT COMPLETED  1.250E-02,  FRACTION OF STEP COMPLETED  2.500E-02
 STEP TIME COMPLETED       2.500E-02,  TOTAL TIME COMPLETED         1.02    


  INCREMENT     3 STARTS. ATTEMPT NUMBER  1, TIME INCREMENT  1.875E-02

  NUMBER OF EQUATIONS =    208893     NUMBER OF RHS =    1
  NUMBER OF FLOATING PT. OPERATIONS =  1.42E+11

  USING THE DIRECT SOLVER WITH  28 PROCESSORS

     CHECK POINT   START OF SOLVER    

     CHECK POINT  END OF SOLVER       

       ELAPSED USER TIME (SEC)      =   32.600    
       ELAPSED SYSTEM TIME (SEC)    =   1.5100    
       ELAPSED TOTAL CPU TIME (SEC) =   34.110    
       ELAPSED WALLCLOCK TIME (SEC) =          2

               CONVERGENCE CHECKS FOR EQUILIBRIUM ITERATION     1


 AVERAGE FORCE                      1.408E-05   TIME AVG. FORCE       1.285E-05
 LARGEST RESIDUAL FORCE             6.643E-06   AT NODE      34857   DOF  3
 LARGEST INCREMENT OF DISP.         2.374E-05   AT NODE      63524   DOF  1
 LARGEST CORRECTION TO DISP.       -2.582E-06   AT NODE      38671   DOF  2
          FORCE     EQUILIBRIUM NOT ACHIEVED WITHIN TOLERANCE.

  NUMBER OF EQUATIONS =    208893     NUMBER OF RHS =    1
  NUMBER OF FLOATING PT. OPERATIONS =  1.42E+11

  USING THE DIRECT SOLVER WITH  28 PROCESSORS

     CHECK POINT   START OF SOLVER    

     CHECK POINT  END OF SOLVER       

       ELAPSED USER TIME (SEC)      =   31.860    
       ELAPSED SYSTEM TIME (SEC)    =   1.4200    
       ELAPSED TOTAL CPU TIME (SEC) =   33.280    
       ELAPSED WALLCLOCK TIME (SEC) =          2

               CONVERGENCE CHECKS FOR EQUILIBRIUM ITERATION     2


 AVERAGE FORCE                      1.409E-05   TIME AVG. FORCE       1.285E-05
 LARGEST RESIDUAL FORCE             5.503E-08   AT NODE      34857   DOF  3
 LARGEST INCREMENT OF DISP.         2.373E-05   AT NODE      63524   DOF  1
 LARGEST CORRECTION TO DISP.       -9.006E-08   AT NODE      38671   DOF  3
          THE FORCE     EQUILIBRIUM EQUATIONS HAVE CONVERGED
          TIME INCREMENT MAY NOW INCREASE TO    2.813E-02
          TIME INCREMENT REDUCED TO   6.250E-03 TO MEET NEXT OUTPUT TIME POINT

 ITERATION SUMMARY FOR THE INCREMENT:   2 TOTAL ITERATIONS, OF WHICH
   0 ARE SEVERE DISCONTINUITY ITERATIONS AND  2 ARE EQUILIBRIUM ITERATIONS.

 TIME INCREMENT COMPLETED  1.875E-02,  FRACTION OF STEP COMPLETED  4.375E-02
 STEP TIME COMPLETED       4.375E-02,  TOTAL TIME COMPLETED         1.04    


  INCREMENT     4 STARTS. ATTEMPT NUMBER  1, TIME INCREMENT  6.250E-03

  NUMBER OF EQUATIONS =    208893     NUMBER OF RHS =    1
  NUMBER OF FLOATING PT. OPERATIONS =  1.42E+11

  USING THE DIRECT SOLVER WITH  28 PROCESSORS

     CHECK POINT   START OF SOLVER    

     CHECK POINT  END OF SOLVER       

       ELAPSED USER TIME (SEC)      =   33.830    
       ELAPSED SYSTEM TIME (SEC)    =   1.5600    
       ELAPSED TOTAL CPU TIME (SEC) =   35.390    
       ELAPSED WALLCLOCK TIME (SEC) =          2

               CONVERGENCE CHECKS FOR EQUILIBRIUM ITERATION     1


 AVERAGE FORCE                      1.455E-05   TIME AVG. FORCE       1.327E-05
 LARGEST RESIDUAL FORCE             2.330E-07   AT NODE      34857   DOF  3
 LARGEST INCREMENT OF DISP.         7.719E-06   AT NODE       4437   DOF  1
 LARGEST CORRECTION TO DISP.       -4.612E-07   AT NODE      38671   DOF  2
          FORCE     EQUILIBRIUM NOT ACHIEVED WITHIN TOLERANCE.

  NUMBER OF EQUATIONS =    208893     NUMBER OF RHS =    1
  NUMBER OF FLOATING PT. OPERATIONS =  1.42E+11

  USING THE DIRECT SOLVER WITH  28 PROCESSORS

     CHECK POINT   START OF SOLVER    

     CHECK POINT  END OF SOLVER       

       ELAPSED USER TIME (SEC)      =   27.460    
       ELAPSED SYSTEM TIME (SEC)    =   1.3300    
       ELAPSED TOTAL CPU TIME (SEC) =   28.790    
       ELAPSED WALLCLOCK TIME (SEC) =          2

               CONVERGENCE CHECKS FOR EQUILIBRIUM ITERATION     2


 AVERAGE FORCE                      1.455E-05   TIME AVG. FORCE       1.327E-05
 LARGEST RESIDUAL FORCE             2.609E-09   AT NODE      38671   DOF  3
 LARGEST INCREMENT OF DISP.         7.718E-06   AT NODE       4437   DOF  1
 LARGEST CORRECTION TO DISP.       -1.641E-08   AT NODE      38671   DOF  3
          THE FORCE     EQUILIBRIUM EQUATIONS HAVE CONVERGED
          TIME INCREMENT MAY NOW INCREASE TO    5.000E-02

 ITERATION SUMMARY FOR THE INCREMENT:   2 TOTAL ITERATIONS, OF WHICH
   0 ARE SEVERE DISCONTINUITY ITERATIONS AND  2 ARE EQUILIBRIUM ITERATIONS.

 TIME INCREMENT COMPLETED  6.250E-03,  FRACTION OF STEP COMPLETED  5.000E-02
 STEP TIME COMPLETED       5.000E-02,  TOTAL TIME COMPLETED         1.05    
  
     ASYNCHRONOUS OUTPUT DATABASE FRAME FLUSH STARTED
  


  INCREMENT     5 STARTS. ATTEMPT NUMBER  1, TIME INCREMENT  5.000E-02

  NUMBER OF EQUATIONS =    208893     NUMBER OF RHS =    1
  NUMBER OF FLOATING PT. OPERATIONS =  1.42E+11

  USING THE DIRECT SOLVER WITH  28 PROCESSORS

     CHECK POINT   START OF SOLVER    

     CHECK POINT  END OF SOLVER       

       ELAPSED USER TIME (SEC)      =   27.060    
       ELAPSED SYSTEM TIME (SEC)    =  0.93000    
       ELAPSED TOTAL CPU TIME (SEC) =   27.990    
       ELAPSED WALLCLOCK TIME (SEC) =          2

               CONVERGENCE CHECKS FOR EQUILIBRIUM ITERATION     1


 AVERAGE FORCE                      1.818E-05   TIME AVG. FORCE       1.425E-05
 LARGEST RESIDUAL FORCE             7.014E-05   AT NODE      34857   DOF  3
 LARGEST INCREMENT OF DISP.         6.128E-05   AT NODE      63524   DOF  1
 LARGEST CORRECTION TO DISP.        1.552E-05   AT NODE      58458   DOF  1
          FORCE     EQUILIBRIUM NOT ACHIEVED WITHIN TOLERANCE.

  NUMBER OF EQUATIONS =    208893     NUMBER OF RHS =    1
  NUMBER OF FLOATING PT. OPERATIONS =  1.42E+11

  USING THE DIRECT SOLVER WITH  28 PROCESSORS

     CHECK POINT   START OF SOLVER    

     CHECK POINT  END OF SOLVER       

       ELAPSED USER TIME (SEC)      =   30.110    
       ELAPSED SYSTEM TIME (SEC)    =   1.0000    
       ELAPSED TOTAL CPU TIME (SEC) =   31.110    
       ELAPSED WALLCLOCK TIME (SEC) =          2

               CONVERGENCE CHECKS FOR EQUILIBRIUM ITERATION     2


 AVERAGE FORCE                      1.819E-05   TIME AVG. FORCE       1.426E-05
 LARGEST RESIDUAL FORCE             2.620E-06   AT NODE      34857   DOF  3
 LARGEST INCREMENT OF DISP.         6.112E-05   AT NODE      63524   DOF  1
 LARGEST CORRECTION TO DISP.       -8.794E-07   AT NODE       9481   DOF  1
          FORCE     EQUILIBRIUM NOT ACHIEVED WITHIN TOLERANCE.

  NUMBER OF EQUATIONS =    208893     NUMBER OF RHS =    1
  NUMBER OF FLOATING PT. OPERATIONS =  1.42E+11

  USING THE DIRECT SOLVER WITH  28 PROCESSORS

     CHECK POINT   START OF SOLVER    

     CHECK POINT  END OF SOLVER       

       ELAPSED USER TIME (SEC)      =   25.160    
       ELAPSED SYSTEM TIME (SEC)    =   1.4100    
       ELAPSED TOTAL CPU TIME (SEC) =   26.570    
       ELAPSED WALLCLOCK TIME (SEC) =          2

               CONVERGENCE CHECKS FOR EQUILIBRIUM ITERATION     3


 AVERAGE FORCE                      1.819E-05   TIME AVG. FORCE       1.426E-05
 LARGEST RESIDUAL FORCE             8.013E-09   AT NODE      34857   DOF  3
 LARGEST INCREMENT OF DISP.         6.111E-05   AT NODE      63524   DOF  1
 LARGEST CORRECTION TO DISP.        2.723E-08   AT NODE      38671   DOF  2
          THE FORCE     EQUILIBRIUM EQUATIONS HAVE CONVERGED
          TIME INCREMENT MAY NOW INCREASE TO    5.000E-02

 ITERATION SUMMARY FOR THE INCREMENT:   3 TOTAL ITERATIONS, OF WHICH
   0 ARE SEVERE DISCONTINUITY ITERATIONS AND  3 ARE EQUILIBRIUM ITERATIONS.

 TIME INCREMENT COMPLETED  5.000E-02,  FRACTION OF STEP COMPLETED  0.100    
 STEP TIME COMPLETED       0.100    ,  TOTAL TIME COMPLETED         1.10    
  
     ASYNCHRONOUS OUTPUT DATABASE FRAME FLUSH STARTED
  


  INCREMENT     6 STARTS. ATTEMPT NUMBER  1, TIME INCREMENT  5.000E-02

  NUMBER OF EQUATIONS =    208893     NUMBER OF RHS =    1
  NUMBER OF FLOATING PT. OPERATIONS =  1.42E+11

  USING THE DIRECT SOLVER WITH  28 PROCESSORS

     CHECK POINT   START OF SOLVER    

     CHECK POINT  END OF SOLVER       

       ELAPSED USER TIME (SEC)      =   30.570    
       ELAPSED SYSTEM TIME (SEC)    =   1.7000    
       ELAPSED TOTAL CPU TIME (SEC) =   32.270    
       ELAPSED WALLCLOCK TIME (SEC) =          2

               CONVERGENCE CHECKS FOR EQUILIBRIUM ITERATION     1


 AVERAGE FORCE                      2.343E-05   TIME AVG. FORCE       1.579E-05
 LARGEST RESIDUAL FORCE             1.533E-05   AT NODE      34857   DOF  3
 LARGEST INCREMENT OF DISP.         7.687E-05   AT NODE       4437   DOF  1
 LARGEST CORRECTION TO DISP.        2.038E-05   AT NODE       8191   DOF  1
          FORCE     EQUILIBRIUM NOT ACHIEVED WITHIN TOLERANCE.

  NUMBER OF EQUATIONS =    208893     NUMBER OF RHS =    1
  NUMBER OF FLOATING PT. OPERATIONS =  1.42E+11

  USING THE DIRECT SOLVER WITH  28 PROCESSORS

     CHECK POINT   START OF SOLVER    

     CHECK POINT  END OF SOLVER       

       ELAPSED USER TIME (SEC)      =   30.010    
       ELAPSED SYSTEM TIME (SEC)    =   1.2600    
       ELAPSED TOTAL CPU TIME (SEC) =   31.270    
       ELAPSED WALLCLOCK TIME (SEC) =          2

               CONVERGENCE CHECKS FOR EQUILIBRIUM ITERATION     2


 AVERAGE FORCE                      2.351E-05   TIME AVG. FORCE       1.580E-05
 LARGEST RESIDUAL FORCE             6.294E-07   AT NODE      34857   DOF  3
 LARGEST INCREMENT OF DISP.         7.657E-05   AT NODE       4437   DOF  1
 LARGEST CORRECTION TO DISP.       -1.823E-06   AT NODE      11370   DOF  1
          FORCE     EQUILIBRIUM NOT ACHIEVED WITHIN TOLERANCE.

  NUMBER OF EQUATIONS =    208893     NUMBER OF RHS =    1
  NUMBER OF FLOATING PT. OPERATIONS =  1.42E+11

  USING THE DIRECT SOLVER WITH  28 PROCESSORS

     CHECK POINT   START OF SOLVER    

     CHECK POINT  END OF SOLVER       

       ELAPSED USER TIME (SEC)      =   26.670    
       ELAPSED SYSTEM TIME (SEC)    =  0.95000    
       ELAPSED TOTAL CPU TIME (SEC) =   27.620    
       ELAPSED WALLCLOCK TIME (SEC) =          1

               CONVERGENCE CHECKS FOR EQUILIBRIUM ITERATION     3


 AVERAGE FORCE                      2.351E-05   TIME AVG. FORCE       1.580E-05
 LARGEST RESIDUAL FORCE            -8.174E-09   AT NODE      63463   DOF  3
 LARGEST INCREMENT OF DISP.         7.655E-05   AT NODE       4437   DOF  1
 LARGEST CORRECTION TO DISP.       -3.027E-08   AT NODE      63463   DOF  1
          THE FORCE     EQUILIBRIUM EQUATIONS HAVE CONVERGED
          TIME INCREMENT MAY NOW INCREASE TO    7.500E-02
          TIME INCREMENT REDUCED TO   5.000E-02 TO MEET NEXT OUTPUT TIME POINT

 ITERATION SUMMARY FOR THE INCREMENT:   3 TOTAL ITERATIONS, OF WHICH
   0 ARE SEVERE DISCONTINUITY ITERATIONS AND  3 ARE EQUILIBRIUM ITERATIONS.

 TIME INCREMENT COMPLETED  5.000E-02,  FRACTION OF STEP COMPLETED  0.150    
 STEP TIME COMPLETED       0.150    ,  TOTAL TIME COMPLETED         1.15    
  
     ASYNCHRONOUS OUTPUT DATABASE FRAME FLUSH STARTED
  


  INCREMENT     7 STARTS. ATTEMPT NUMBER  1, TIME INCREMENT  5.000E-02

  NUMBER OF EQUATIONS =    208893     NUMBER OF RHS =    1
  NUMBER OF FLOATING PT. OPERATIONS =  1.42E+11

  USING THE DIRECT SOLVER WITH  28 PROCESSORS

     CHECK POINT   START OF SOLVER    

     CHECK POINT  END OF SOLVER       

       ELAPSED USER TIME (SEC)      =   27.120    
       ELAPSED SYSTEM TIME (SEC)    =   1.2400    
       ELAPSED TOTAL CPU TIME (SEC) =   28.360    
       ELAPSED WALLCLOCK TIME (SEC) =          1
 

 ***WARNING: THE SYSTEM MATRIX HAS 1 NEGATIVE EIGENVALUES.

     NEGATIVE EIGENVALUES MEAN THAT THE SYSTEM MATRIX IS NOT 
     POSITIVE DEFINITE:
     FOR EXAMPLE, A BIFURCATION (BUCKLING) LOAD MAY HAVE BEEN EXCEEDED.

               CONVERGENCE CHECKS FOR EQUILIBRIUM ITERATION     1


 AVERAGE FORCE                      2.272E+07   TIME AVG. FORCE       3.245E+06
 LARGEST RESIDUAL FORCE            -4.998E+12   AT NODE      62458   DOF  2
 LARGEST INCREMENT OF DISP.        -4.959E-04   AT NODE       5942   DOF  2
 LARGEST CORRECTION TO DISP.        4.540E-04   AT NODE       9268   DOF  1
          FORCE     EQUILIBRIUM NOT ACHIEVED WITHIN TOLERANCE.

  NUMBER OF EQUATIONS =    208893     NUMBER OF RHS =    1
  NUMBER OF FLOATING PT. OPERATIONS =  1.42E+11

  USING THE DIRECT SOLVER WITH  28 PROCESSORS

     CHECK POINT   START OF SOLVER    

     CHECK POINT  END OF SOLVER       

       ELAPSED USER TIME (SEC)      =   32.480    
       ELAPSED SYSTEM TIME (SEC)    =   1.5400    
       ELAPSED TOTAL CPU TIME (SEC) =   34.020    
       ELAPSED WALLCLOCK TIME (SEC) =          2
 

 ***WARNING: THE SYSTEM MATRIX HAS 1248 NEGATIVE EIGENVALUES.
             EXPLANATIONS ARE SUGGESTED AFTER THE FIRST OCCURRENCE OF THIS MESSAGE.
 

 ***WARNING: SOLVER PROBLEM. NUMERICAL SINGULARITY WHEN PROCESSING NODE 9282 
             D.O.F. 1 RATIO = 323.094E+09  .
 

 ***WARNING: SOLVER PROBLEM. NUMERICAL SINGULARITY WHEN PROCESSING NODE 9282 
             D.O.F. 2 RATIO = 4.70149E+09.
 

 ***WARNING: SOLVER PROBLEM. NUMERICAL SINGULARITY WHEN PROCESSING NODE 22934 
             D.O.F. 1 RATIO = 95.3164E+09 .
 

 ***WARNING: SOLVER PROBLEM. NUMERICAL SINGULARITY WHEN PROCESSING NODE 22934 
             D.O.F. 2 RATIO = 80.9959E+09 .
 

 ***WARNING: SOLVER PROBLEM. NUMERICAL SINGULARITY WHEN PROCESSING NODE 22934 
             D.O.F. 3 RATIO = 170.993E+09  .
 

 ***WARNING: SOLVER PROBLEM. NUMERICAL SINGULARITY WHEN PROCESSING NODE 9297 
             D.O.F. 1 RATIO = 67.4911E+09 .
 

 ***WARNING: SOLVER PROBLEM. NUMERICAL SINGULARITY WHEN PROCESSING NODE 9297 
             D.O.F. 2 RATIO = 196.392E+09  .
 

 ***WARNING: SOLVER PROBLEM. NUMERICAL SINGULARITY WHEN PROCESSING NODE 60407 
             D.O.F. 1 RATIO = 619.786E+09  .
 

 ***WARNING: SOLVER PROBLEM. NUMERICAL SINGULARITY WHEN PROCESSING NODE 60407 
             D.O.F. 2 RATIO = 12.3148E+12 .
 

 ***WARNING: SOLVER PROBLEM. NUMERICAL SINGULARITY WHEN PROCESSING NODE 60407 
             D.O.F. 3 RATIO = 324.527E+09  .
 

 ***WARNING: SOLVER PROBLEM. NUMERICAL SINGULARITY WHEN PROCESSING NODE 60400 
             D.O.F. 1 RATIO = 467.182E+09  .
 

 ***WARNING: SOLVER PROBLEM. NUMERICAL SINGULARITY WHEN PROCESSING NODE 60400 
             D.O.F. 2 RATIO = 317.664E+09  .
 

 ***WARNING: SOLVER PROBLEM. NUMERICAL SINGULARITY WHEN PROCESSING NODE 60400 
             D.O.F. 3 RATIO = 169.407E+09  .
 

 ***WARNING: SOLVER PROBLEM. NUMERICAL SINGULARITY WHEN PROCESSING NODE 9300 
             D.O.F. 1 RATIO = 6.51788E+12.
 

 ***WARNING: SOLVER PROBLEM. NUMERICAL SINGULARITY WHEN PROCESSING NODE 9300 
             D.O.F. 2 RATIO = 48.5317E+12 .
 

 ***WARNING: SOLVER PROBLEM. NUMERICAL SINGULARITY WHEN PROCESSING NODE 9300 
             D.O.F. 3 RATIO = 42.4862E+12 .
 

 ***WARNING: SOLVER PROBLEM. NUMERICAL SINGULARITY WHEN PROCESSING NODE 9322 
             D.O.F. 1 RATIO = 37.4126E+09 .
 

 ***WARNING: SOLVER PROBLEM. NUMERICAL SINGULARITY WHEN PROCESSING NODE 9322 
             D.O.F. 2 RATIO = 11.1342E+12 .
 

 ***WARNING: SOLVER PROBLEM. NUMERICAL SINGULARITY WHEN PROCESSING NODE 9322 
             D.O.F. 3 RATIO = 4.23058E+12.
 

 ***WARNING: SOLVER PROBLEM. NUMERICAL SINGULARITY WHEN PROCESSING NODE 62458 
             D.O.F. 1 RATIO = 44.2275E+09 .
 

 ***WARNING: SOLVER PROBLEM. NUMERICAL SINGULARITY WHEN PROCESSING NODE 62458 
             D.O.F. 2 RATIO = 407.371E+09  .
 

 ***WARNING: SOLVER PROBLEM. NUMERICAL SINGULARITY WHEN PROCESSING NODE 62458 
             D.O.F. 3 RATIO = 38.1244E+09 .
 

 ***WARNING: SOLVER PROBLEM. NUMERICAL SINGULARITY WHEN PROCESSING NODE 62459 
             D.O.F. 2 RATIO = 6.19666E+09.
 

 ***WARNING: SOLVER PROBLEM. NUMERICAL SINGULARITY WHEN PROCESSING NODE 9388 
             D.O.F. 2 RATIO = 23.7121E+09 .
   ELEMENT 7 IS DISTORTING EXCESSIVELY.
   ELEMENT 10 IS DISTORTING EXCESSIVELY.
   ELEMENT 10 IS DISTORTING EXCESSIVELY.
   ELEMENT 13 IS DISTORTING EXCESSIVELY.
   ELEMENT 14 IS DISTORTING EXCESSIVELY.
   ELEMENT 14 IS DISTORTING EXCESSIVELY.
   ELEMENT 14 IS DISTORTING EXCESSIVELY.
   ELEMENT 14 IS DISTORTING EXCESSIVELY.
   ELEMENT 17 IS DISTORTING EXCESSIVELY.
   ELEMENT 17 IS DISTORTING EXCESSIVELY.
   ELEMENT 17 IS DISTORTING EXCESSIVELY.
   ELEMENT 20 IS DISTORTING EXCESSIVELY.
   ELEMENT 20 IS DISTORTING EXCESSIVELY.
   ELEMENT 20 IS DISTORTING EXCESSIVELY.
   ELEMENT 20 IS DISTORTING EXCESSIVELY.
   ELEMENT 24 IS DISTORTING EXCESSIVELY.
   ELEMENT 24 IS DISTORTING EXCESSIVELY.
   ELEMENT 24 IS DISTORTING EXCESSIVELY.
   ELEMENT 24 IS DISTORTING EXCESSIVELY.
   ELEMENT 25 IS DISTORTING EXCESSIVELY.
   ELEMENT 25 IS DISTORTING EXCESSIVELY.
   ELEMENT 25 IS DISTORTING EXCESSIVELY.
   ELEMENT 25 IS DISTORTING EXCESSIVELY.
   ELEMENT 26 IS DISTORTING EXCESSIVELY.
   ELEMENT 26 IS DISTORTING EXCESSIVELY.
   ELEMENT 26 IS DISTORTING EXCESSIVELY.
   ELEMENT 26 IS DISTORTING EXCESSIVELY.
   ELEMENT 31 IS DISTORTING EXCESSIVELY.
   ELEMENT 31 IS DISTORTING EXCESSIVELY.
   ELEMENT 31 IS DISTORTING EXCESSIVELY.
   ELEMENT 32 IS DISTORTING EXCESSIVELY.
   ELEMENT 32 IS DISTORTING EXCESSIVELY.
   ELEMENT 32 IS DISTORTING EXCESSIVELY.
   ELEMENT 38 IS DISTORTING EXCESSIVELY.
   ELEMENT 38 IS DISTORTING EXCESSIVELY.
   ELEMENT 38 IS DISTORTING EXCESSIVELY.
   ELEMENT 38 IS DISTORTING EXCESSIVELY.
   ELEMENT 41 IS DISTORTING EXCESSIVELY.
   ELEMENT 41 IS DISTORTING EXCESSIVELY.
   ELEMENT 43 IS DISTORTING EXCESSIVELY.
   ELEMENT 46 IS DISTORTING EXCESSIVELY.
   ELEMENT 49 IS DISTORTING EXCESSIVELY.
   ELEMENT 49 IS DISTORTING EXCESSIVELY.
   ELEMENT 49 IS DISTORTING EXCESSIVELY.
   ELEMENT 49 IS DISTORTING EXCESSIVELY.
   ELEMENT 53 IS DISTORTING EXCESSIVELY.
   ELEMENT 66 IS DISTORTING EXCESSIVELY.
   ELEMENT 66 IS DISTORTING EXCESSIVELY.
   ELEMENT 66 IS DISTORTING EXCESSIVELY.
   ELEMENT 66 IS DISTORTING EXCESSIVELY.
   ELEMENT 70 IS DISTORTING EXCESSIVELY.
   ELEMENT 70 IS DISTORTING EXCESSIVELY.
   ELEMENT 73 IS DISTORTING EXCESSIVELY.
   ELEMENT 78 IS DISTORTING EXCESSIVELY.
   ELEMENT 78 IS DISTORTING EXCESSIVELY.
   ELEMENT 78 IS DISTORTING EXCESSIVELY.
   ELEMENT 84 IS DISTORTING EXCESSIVELY.
   ELEMENT 84 IS DISTORTING EXCESSIVELY.
   ELEMENT 84 IS DISTORTING EXCESSIVELY.
   ELEMENT 90 IS DISTORTING EXCESSIVELY.
   ELEMENT 91 IS DISTORTING EXCESSIVELY.
   ELEMENT 92 IS DISTORTING EXCESSIVELY.
   ELEMENT 92 IS DISTORTING EXCESSIVELY.
   ELEMENT 93 IS DISTORTING EXCESSIVELY.
   ELEMENT 93 IS DISTORTING EXCESSIVELY.
   ELEMENT 93 IS DISTORTING EXCESSIVELY.
   ELEMENT 99 IS DISTORTING EXCESSIVELY.
   ELEMENT 108 IS DISTORTING EXCESSIVELY.
   ELEMENT 108 IS DISTORTING EXCESSIVELY.
   ELEMENT 108 IS DISTORTING EXCESSIVELY.
   ELEMENT 108 IS DISTORTING EXCESSIVELY.
   ELEMENT 119 IS DISTORTING EXCESSIVELY.
   ELEMENT 119 IS DISTORTING EXCESSIVELY.
   ELEMENT 120 IS DISTORTING EXCESSIVELY.
   ELEMENT 120 IS DISTORTING EXCESSIVELY.
   ELEMENT 120 IS DISTORTING EXCESSIVELY.
   ELEMENT 120 IS DISTORTING EXCESSIVELY.
   ELEMENT 122 IS DISTORTING EXCESSIVELY.
   ELEMENT 122 IS DISTORTING EXCESSIVELY.
   ELEMENT 122 IS DISTORTING EXCESSIVELY.
   ELEMENT 122 IS DISTORTING EXCESSIVELY.
   ELEMENT 123 IS DISTORTING EXCESSIVELY.
   ELEMENT 123 IS DISTORTING EXCESSIVELY.
   ELEMENT 123 IS DISTORTING EXCESSIVELY.
   ELEMENT 127 IS DISTORTING EXCESSIVELY.
   ELEMENT 127 IS DISTORTING EXCESSIVELY.
   ELEMENT 127 IS DISTORTING EXCESSIVELY.
   ELEMENT 131 IS DISTORTING EXCESSIVELY.
   ELEMENT 131 IS DISTORTING EXCESSIVELY.
   ELEMENT 131 IS DISTORTING EXCESSIVELY.
   ELEMENT 131 IS DISTORTING EXCESSIVELY.
   ELEMENT 133 IS DISTORTING EXCESSIVELY.
   ELEMENT 133 IS DISTORTING EXCESSIVELY.
   ELEMENT 136 IS DISTORTING EXCESSIVELY.
   ELEMENT 136 IS DISTORTING EXCESSIVELY.
   ELEMENT 137 IS DISTORTING EXCESSIVELY.
   ELEMENT 137 IS DISTORTING EXCESSIVELY.
   ELEMENT 140 IS DISTORTING EXCESSIVELY.
   ELEMENT 154 IS DISTORTING EXCESSIVELY.
   ELEMENT 154 IS DISTORTING EXCESSIVELY.
   ELEMENT 154 IS DISTORTING EXCESSIVELY.
   ELEMENT 154 IS DISTORTING EXCESSIVELY.
   ELEMENT 158 IS DISTORTING EXCESSIVELY.
   ELEMENT 162 IS DISTORTING EXCESSIVELY.
   ELEMENT 162 IS DISTORTING EXCESSIVELY.
   ELEMENT 162 IS DISTORTING EXCESSIVELY.
   ELEMENT 164 IS DISTORTING EXCESSIVELY.
   ELEMENT 164 IS DISTORTING EXCESSIVELY.
   ELEMENT 164 IS DISTORTING EXCESSIVELY.
   ELEMENT 164 IS DISTORTING EXCESSIVELY.
   ELEMENT 166 IS DISTORTING EXCESSIVELY.
   ELEMENT 166 IS DISTORTING EXCESSIVELY.
   ELEMENT 169 IS DISTORTING EXCESSIVELY.
   ELEMENT 176 IS DISTORTING EXCESSIVELY.
   ELEMENT 176 IS DISTORTING EXCESSIVELY.
   ELEMENT 179 IS DISTORTING EXCESSIVELY.
   ELEMENT 179 IS DISTORTING EXCESSIVELY.
   ELEMENT 179 IS DISTORTING EXCESSIVELY.
   ELEMENT 180 IS DISTORTING EXCESSIVELY.
   ELEMENT 182 IS DISTORTING EXCESSIVELY.
   ELEMENT 188 IS DISTORTING EXCESSIVELY.
   ELEMENT 191 IS DISTORTING EXCESSIVELY.
   ELEMENT 206 IS DISTORTING EXCESSIVELY.
   ELEMENT 206 IS DISTORTING EXCESSIVELY.
   ELEMENT 206 IS DISTORTING EXCESSIVELY.
   ELEMENT 206 IS DISTORTING EXCESSIVELY.
   ELEMENT 219 IS DISTORTING EXCESSIVELY.
   ELEMENT 227 IS DISTORTING EXCESSIVELY.
   ELEMENT 230 IS DISTORTING EXCESSIVELY.
   ELEMENT 230 IS DISTORTING EXCESSIVELY.
   ELEMENT 230 IS DISTORTING EXCESSIVELY.
   ELEMENT 230 IS DISTORTING EXCESSIVELY.
   ELEMENT 244 IS DISTORTING EXCESSIVELY.
   ELEMENT 244 IS DISTORTING EXCESSIVELY.
   ELEMENT 249 IS DISTORTING EXCESSIVELY.
   ELEMENT 250 IS DISTORTING EXCESSIVELY.
   ELEMENT 250 IS DISTORTING EXCESSIVELY.
   ELEMENT 250 IS DISTORTING EXCESSIVELY.
   ELEMENT 250 IS DISTORTING EXCESSIVELY.
   ELEMENT 252 IS DISTORTING EXCESSIVELY.
   ELEMENT 254 IS DISTORTING EXCESSIVELY.
   ELEMENT 255 IS DISTORTING EXCESSIVELY.
   ELEMENT 255 IS DISTORTING EXCESSIVELY.
   ELEMENT 255 IS DISTORTING EXCESSIVELY.
   ELEMENT 21251 IS DISTORTING EXCESSIVELY.
   ELEMENT 21251 IS DISTORTING EXCESSIVELY.
   ELEMENT 21252 IS DISTORTING EXCESSIVELY.
   ELEMENT 21252 IS DISTORTING EXCESSIVELY.
   ELEMENT 21260 IS DISTORTING EXCESSIVELY.
   ELEMENT 21260 IS DISTORTING EXCESSIVELY.
   ELEMENT 21260 IS DISTORTING EXCESSIVELY.
   ELEMENT 21260 IS DISTORTING EXCESSIVELY.
   ELEMENT 21264 IS DISTORTING EXCESSIVELY.
   ELEMENT 21264 IS DISTORTING EXCESSIVELY.
   ELEMENT 21264 IS DISTORTING EXCESSIVELY.
   ELEMENT 21267 IS DISTORTING EXCESSIVELY.
   ELEMENT 21267 IS DISTORTING EXCESSIVELY.
   ELEMENT 21267 IS DISTORTING EXCESSIVELY.
   ELEMENT 21269 IS DISTORTING EXCESSIVELY.
   ELEMENT 21269 IS DISTORTING EXCESSIVELY.
   ELEMENT 21269 IS DISTORTING EXCESSIVELY.
   ELEMENT 21272 IS DISTORTING EXCESSIVELY.
   ELEMENT 21272 IS DISTORTING EXCESSIVELY.
   ELEMENT 21272 IS DISTORTING EXCESSIVELY.
   ELEMENT 21272 IS DISTORTING EXCESSIVELY.
   ELEMENT 21287 IS DISTORTING EXCESSIVELY.
   ELEMENT 21289 IS DISTORTING EXCESSIVELY.
   ELEMENT 21289 IS DISTORTING EXCESSIVELY.
   ELEMENT 21289 IS DISTORTING EXCESSIVELY.
   ELEMENT 21289 IS DISTORTING EXCESSIVELY.
   ELEMENT 21293 IS DISTORTING EXCESSIVELY.
   ELEMENT 21294 IS DISTORTING EXCESSIVELY.
   ELEMENT 21294 IS DISTORTING EXCESSIVELY.
   ELEMENT 21309 IS DISTORTING EXCESSIVELY.
   ELEMENT 21315 IS DISTORTING EXCESSIVELY.
   ELEMENT 21315 IS DISTORTING EXCESSIVELY.
   ELEMENT 21315 IS DISTORTING EXCESSIVELY.
   ELEMENT 21315 IS DISTORTING EXCESSIVELY.
   ELEMENT 21327 IS DISTORTING EXCESSIVELY.
   ELEMENT 21334 IS DISTORTING EXCESSIVELY.
   ELEMENT 21335 IS DISTORTING EXCESSIVELY.
   ELEMENT 21335 IS DISTORTING EXCESSIVELY.
   ELEMENT 21335 IS DISTORTING EXCESSIVELY.
   ELEMENT 21335 IS DISTORTING EXCESSIVELY.
   ELEMENT 21336 IS DISTORTING EXCESSIVELY.
   ELEMENT 21336 IS DISTORTING EXCESSIVELY.
   ELEMENT 21336 IS DISTORTING EXCESSIVELY.
   ELEMENT 21336 IS DISTORTING EXCESSIVELY.
   ELEMENT 21341 IS DISTORTING EXCESSIVELY.
   ELEMENT 21341 IS DISTORTING EXCESSIVELY.
   ELEMENT 21341 IS DISTORTING EXCESSIVELY.
   ELEMENT 21343 IS DISTORTING EXCESSIVELY.
   ELEMENT 21344 IS DISTORTING EXCESSIVELY.
   ELEMENT 21344 IS DISTORTING EXCESSIVELY.
   ELEMENT 21345 IS DISTORTING EXCESSIVELY.
   ELEMENT 21345 IS DISTORTING EXCESSIVELY.
   ELEMENT 21349 IS DISTORTING EXCESSIVELY.
   ELEMENT 21349 IS DISTORTING EXCESSIVELY.
   ELEMENT 21351 IS DISTORTING EXCESSIVELY.
   ELEMENT 21351 IS DISTORTING EXCESSIVELY.
   ELEMENT 21354 IS DISTORTING EXCESSIVELY.
   ELEMENT 21355 IS DISTORTING EXCESSIVELY.
   ELEMENT 21355 IS DISTORTING EXCESSIVELY.
   ELEMENT 21356 IS DISTORTING EXCESSIVELY.
   ELEMENT 21356 IS DISTORTING EXCESSIVELY.
   ELEMENT 21356 IS DISTORTING EXCESSIVELY.
   ELEMENT 21357 IS DISTORTING EXCESSIVELY.
   ELEMENT 21357 IS DISTORTING EXCESSIVELY.
   ELEMENT 21357 IS DISTORTING EXCESSIVELY.
   ELEMENT 21359 IS DISTORTING EXCESSIVELY.
   ELEMENT 21359 IS DISTORTING EXCESSIVELY.
   ELEMENT 21363 IS DISTORTING EXCESSIVELY.
   ELEMENT 21367 IS DISTORTING EXCESSIVELY.
   ELEMENT 21368 IS DISTORTING EXCESSIVELY.
   ELEMENT 21368 IS DISTORTING EXCESSIVELY.
   ELEMENT 21368 IS DISTORTING EXCESSIVELY.
   ELEMENT 21368 IS DISTORTING EXCESSIVELY.
   ELEMENT 21373 IS DISTORTING EXCESSIVELY.
   ELEMENT 21373 IS DISTORTING EXCESSIVELY.
   ELEMENT 21373 IS DISTORTING EXCESSIVELY.
   ELEMENT 21373 IS DISTORTING EXCESSIVELY.
   ELEMENT 21374 IS DISTORTING EXCESSIVELY.
   ELEMENT 21376 IS DISTORTING EXCESSIVELY.
   ELEMENT 21376 IS DISTORTING EXCESSIVELY.
   ELEMENT 21376 IS DISTORTING EXCESSIVELY.
   ELEMENT 21376 IS DISTORTING EXCESSIVELY.
   ELEMENT 21379 IS DISTORTING EXCESSIVELY.
   ELEMENT 21379 IS DISTORTING EXCESSIVELY.
   ELEMENT 21379 IS DISTORTING EXCESSIVELY.
   ELEMENT 21380 IS DISTORTING EXCESSIVELY.
   ELEMENT 21380 IS DISTORTING EXCESSIVELY.
   ELEMENT 21387 IS DISTORTING EXCESSIVELY.
   ELEMENT 21389 IS DISTORTING EXCESSIVELY.
   ELEMENT 21389 IS DISTORTING EXCESSIVELY.
   ELEMENT 21391 IS DISTORTING EXCESSIVELY.
   ELEMENT 21391 IS DISTORTING EXCESSIVELY.
   ELEMENT 21391 IS DISTORTING EXCESSIVELY.
   ELEMENT 21392 IS DISTORTING EXCESSIVELY.
   ELEMENT 21392 IS DISTORTING EXCESSIVELY.
   ELEMENT 21393 IS DISTORTING EXCESSIVELY.
   ELEMENT 21393 IS DISTORTING EXCESSIVELY.
   ELEMENT 21393 IS DISTORTING EXCESSIVELY.
   ELEMENT 21396 IS DISTORTING EXCESSIVELY.
   ELEMENT 21396 IS DISTORTING EXCESSIVELY.
   ELEMENT 21396 IS DISTORTING EXCESSIVELY.
   ELEMENT 21398 IS DISTORTING EXCESSIVELY.
   ELEMENT 21399 IS DISTORTING EXCESSIVELY.
   ELEMENT 21404 IS DISTORTING EXCESSIVELY.
   ELEMENT 21404 IS DISTORTING EXCESSIVELY.
   ELEMENT 21405 IS DISTORTING EXCESSIVELY.
   ELEMENT 21405 IS DISTORTING EXCESSIVELY.
   ELEMENT 21405 IS DISTORTING EXCESSIVELY.
   ELEMENT 21405 IS DISTORTING EXCESSIVELY.
   ELEMENT 21409 IS DISTORTING EXCESSIVELY.
   ELEMENT 21413 IS DISTORTING EXCESSIVELY.
   ELEMENT 21413 IS DISTORTING EXCESSIVELY.
   ELEMENT 21414 IS DISTORTING EXCESSIVELY.
   ELEMENT 21414 IS DISTORTING EXCESSIVELY.
   ELEMENT 21414 IS DISTORTING EXCESSIVELY.
   ELEMENT 21414 IS DISTORTING EXCESSIVELY.
   ELEMENT 21415 IS DISTORTING EXCESSIVELY.
   ELEMENT 21415 IS DISTORTING EXCESSIVELY.
   ELEMENT 21415 IS DISTORTING EXCESSIVELY.
   ELEMENT 21415 IS DISTORTING EXCESSIVELY.
   ELEMENT 21416 IS DISTORTING EXCESSIVELY.
   ELEMENT 21418 IS DISTORTING EXCESSIVELY.
   ELEMENT 21418 IS DISTORTING EXCESSIVELY.
   ELEMENT 21421 IS DISTORTING EXCESSIVELY.
   ELEMENT 21422 IS DISTORTING EXCESSIVELY.
   ELEMENT 21422 IS DISTORTING EXCESSIVELY.
   ELEMENT 21423 IS DISTORTING EXCESSIVELY.
   ELEMENT 21426 IS DISTORTING EXCESSIVELY.
   ELEMENT 21426 IS DISTORTING EXCESSIVELY.
   ELEMENT 21426 IS DISTORTING EXCESSIVELY.
   ELEMENT 21428 IS DISTORTING EXCESSIVELY.
   ELEMENT 21428 IS DISTORTING EXCESSIVELY.
   ELEMENT 21429 IS DISTORTING EXCESSIVELY.
   ELEMENT 21429 IS DISTORTING EXCESSIVELY.
   ELEMENT 21431 IS DISTORTING EXCESSIVELY.
   ELEMENT 21431 IS DISTORTING EXCESSIVELY.
   ELEMENT 21433 IS DISTORTING EXCESSIVELY.
   ELEMENT 21433 IS DISTORTING EXCESSIVELY.
   ELEMENT 21433 IS DISTORTING EXCESSIVELY.
   ELEMENT 21434 IS DISTORTING EXCESSIVELY.
   ELEMENT 21440 IS DISTORTING EXCESSIVELY.
   ELEMENT 21440 IS DISTORTING EXCESSIVELY.
   ELEMENT 21440 IS DISTORTING EXCESSIVELY.
   ELEMENT 21445 IS DISTORTING EXCESSIVELY.
   ELEMENT 21445 IS DISTORTING EXCESSIVELY.
   ELEMENT 21446 IS DISTORTING EXCESSIVELY.
   ELEMENT 21446 IS DISTORTING EXCESSIVELY.
   ELEMENT 21446 IS DISTORTING EXCESSIVELY.
   ELEMENT 21446 IS DISTORTING EXCESSIVELY.
   ELEMENT 21447 IS DISTORTING EXCESSIVELY.
   ELEMENT 21447 IS DISTORTING EXCESSIVELY.
   ELEMENT 21447 IS DISTORTING EXCESSIVELY.
   ELEMENT 21447 IS DISTORTING EXCESSIVELY.
   ELEMENT 21448 IS DISTORTING EXCESSIVELY.
   ELEMENT 21448 IS DISTORTING EXCESSIVELY.
   ELEMENT 21448 IS DISTORTING EXCESSIVELY.
   ELEMENT 21449 IS DISTORTING EXCESSIVELY.
   ELEMENT 21449 IS DISTORTING EXCESSIVELY.
   ELEMENT 21449 IS DISTORTING EXCESSIVELY.
   ELEMENT 21452 IS DISTORTING EXCESSIVELY.
   ELEMENT 21452 IS DISTORTING EXCESSIVELY.
   ELEMENT 21452 IS DISTORTING EXCESSIVELY.
   ELEMENT 21452 IS DISTORTING EXCESSIVELY.
   ELEMENT 21454 IS DISTORTING EXCESSIVELY.
   ELEMENT 21455 IS DISTORTING EXCESSIVELY.
   ELEMENT 21455 IS DISTORTING EXCESSIVELY.
   ELEMENT 21456 IS DISTORTING EXCESSIVELY.
   ELEMENT 21456 IS DISTORTING EXCESSIVELY.
   ELEMENT 21456 IS DISTORTING EXCESSIVELY.
   ELEMENT 21461 IS DISTORTING EXCESSIVELY.
   ELEMENT 21461 IS DISTORTING EXCESSIVELY.
   ELEMENT 21463 IS DISTORTING EXCESSIVELY.
   ELEMENT 21469 IS DISTORTING EXCESSIVELY.
   ELEMENT 21469 IS DISTORTING EXCESSIVELY.
   ELEMENT 21472 IS DISTORTING EXCESSIVELY.
   ELEMENT 21472 IS DISTORTING EXCESSIVELY.
   ELEMENT 21472 IS DISTORTING EXCESSIVELY.
   ELEMENT 21473 IS DISTORTING EXCESSIVELY.
   ELEMENT 21473 IS DISTORTING EXCESSIVELY.
   ELEMENT 21473 IS DISTORTING EXCESSIVELY.
   ELEMENT 21473 IS DISTORTING EXCESSIVELY.
   ELEMENT 21474 IS DISTORTING EXCESSIVELY.
[...]
  NUMBER OF EQUATIONS =    208893     NUMBER OF RHS =    1
  NUMBER OF FLOATING PT. OPERATIONS =  1.42E+11

  USING THE DIRECT SOLVER WITH  28 PROCESSORS

     CHECK POINT   START OF SOLVER    

     CHECK POINT  END OF SOLVER       

       ELAPSED USER TIME (SEC)      =   30.180    
       ELAPSED SYSTEM TIME (SEC)    =   1.4700    
       ELAPSED TOTAL CPU TIME (SEC) =   31.650    
       ELAPSED WALLCLOCK TIME (SEC) =          2

               CONVERGENCE CHECKS FOR EQUILIBRIUM ITERATION     3


 AVERAGE FORCE                      1.864E-05   TIME AVG. FORCE       7.822E-05
 LARGEST RESIDUAL FORCE             1.598E-08   AT NODE      34857   DOF  3
 LARGEST INCREMENT OF DISP.         5.920E-05   AT NODE      69340   DOF  2
 LARGEST CORRECTION TO DISP.        3.686E-08   AT NODE      39417   DOF  2
          THE FORCE     EQUILIBRIUM EQUATIONS HAVE CONVERGED
          TIME INCREMENT MAY NOW INCREASE TO    7.500E-02
          TIME INCREMENT REDUCED TO   5.000E-02 TO MEET NEXT OUTPUT TIME POINT

 ITERATION SUMMARY FOR THE INCREMENT:   3 TOTAL ITERATIONS, OF WHICH
   0 ARE SEVERE DISCONTINUITY ITERATIONS AND  3 ARE EQUILIBRIUM ITERATIONS.

 TIME INCREMENT COMPLETED  5.000E-02,  FRACTION OF STEP COMPLETED  0.750    
 STEP TIME COMPLETED       0.750    ,  TOTAL TIME COMPLETED         1.75    
  
     ASYNCHRONOUS OUTPUT DATABASE FRAME FLUSH STARTED
  


  INCREMENT    57 STARTS. ATTEMPT NUMBER  1, TIME INCREMENT  5.000E-02

  NUMBER OF EQUATIONS =    208893     NUMBER OF RHS =    1
  NUMBER OF FLOATING PT. OPERATIONS =  1.42E+11

  USING THE DIRECT SOLVER WITH  28 PROCESSORS

     CHECK POINT   START OF SOLVER    

     CHECK POINT  END OF SOLVER       

       ELAPSED USER TIME (SEC)      =   29.660    
       ELAPSED SYSTEM TIME (SEC)    =   1.3500    
       ELAPSED TOTAL CPU TIME (SEC) =   31.010    
       ELAPSED WALLCLOCK TIME (SEC) =          2

               CONVERGENCE CHECKS FOR EQUILIBRIUM ITERATION     1


 AVERAGE FORCE                      1.906E-05   TIME AVG. FORCE       7.719E-05
 LARGEST RESIDUAL FORCE             2.501E-04   AT NODE      39417   DOF  3
 LARGEST INCREMENT OF DISP.         3.586E-05   AT NODE       1754   DOF  2
 LARGEST CORRECTION TO DISP.       -2.343E-05   AT NODE      38671   DOF  2
          FORCE     EQUILIBRIUM NOT ACHIEVED WITHIN TOLERANCE.

  NUMBER OF EQUATIONS =    208893     NUMBER OF RHS =    1
  NUMBER OF FLOATING PT. OPERATIONS =  1.42E+11

  USING THE DIRECT SOLVER WITH  28 PROCESSORS

     CHECK POINT   START OF SOLVER    

     CHECK POINT  END OF SOLVER       

       ELAPSED USER TIME (SEC)      =   27.450    
       ELAPSED SYSTEM TIME (SEC)    =   1.1500    
       ELAPSED TOTAL CPU TIME (SEC) =   28.600    
       ELAPSED WALLCLOCK TIME (SEC) =          2

               CONVERGENCE CHECKS FOR EQUILIBRIUM ITERATION     2


 AVERAGE FORCE                      1.911E-05   TIME AVG. FORCE       7.719E-05
 LARGEST RESIDUAL FORCE            -1.595E-05   AT NODE      34857   DOF  2
 LARGEST INCREMENT OF DISP.         3.616E-05   AT NODE      69340   DOF  2
 LARGEST CORRECTION TO DISP.       -1.939E-06   AT NODE       2073   DOF  2
          FORCE     EQUILIBRIUM NOT ACHIEVED WITHIN TOLERANCE.

  NUMBER OF EQUATIONS =    208893     NUMBER OF RHS =    1
  NUMBER OF FLOATING PT. OPERATIONS =  1.42E+11

  USING THE DIRECT SOLVER WITH  28 PROCESSORS

     CHECK POINT   START OF SOLVER    

     CHECK POINT  END OF SOLVER       

       ELAPSED USER TIME (SEC)      =   27.870    
       ELAPSED SYSTEM TIME (SEC)    =   1.3400    
       ELAPSED TOTAL CPU TIME (SEC) =   29.210    
       ELAPSED WALLCLOCK TIME (SEC) =          2

               CONVERGENCE CHECKS FOR EQUILIBRIUM ITERATION     3


 AVERAGE FORCE                      1.911E-05   TIME AVG. FORCE       7.719E-05
 LARGEST RESIDUAL FORCE            -8.531E-07   AT NODE      34857   DOF  2
 LARGEST INCREMENT OF DISP.         3.606E-05   AT NODE      69340   DOF  2
 LARGEST CORRECTION TO DISP.       -3.292E-07   AT NODE      14118   DOF  3
          FORCE     EQUILIBRIUM NOT ACHIEVED WITHIN TOLERANCE.

  NUMBER OF EQUATIONS =    208893     NUMBER OF RHS =    1
  NUMBER OF FLOATING PT. OPERATIONS =  1.42E+11

  USING THE DIRECT SOLVER WITH  28 PROCESSORS

     CHECK POINT   START OF SOLVER    

     CHECK POINT  END OF SOLVER       

       ELAPSED USER TIME (SEC)      =   27.050    
       ELAPSED SYSTEM TIME (SEC)    =   1.4100    
       ELAPSED TOTAL CPU TIME (SEC) =   28.460    
       ELAPSED WALLCLOCK TIME (SEC) =          2

               CONVERGENCE CHECKS FOR EQUILIBRIUM ITERATION     4


 AVERAGE FORCE                      1.911E-05   TIME AVG. FORCE       7.719E-05
 LARGEST RESIDUAL FORCE             8.493E-09   AT NODE      34857   DOF  3
 LARGEST INCREMENT OF DISP.         3.606E-05   AT NODE      69340   DOF  2
 LARGEST CORRECTION TO DISP.       -1.324E-08   AT NODE      34857   DOF  2
          THE FORCE     EQUILIBRIUM EQUATIONS HAVE CONVERGED
          TIME INCREMENT MAY NOW INCREASE TO    0.113    
          TIME INCREMENT REDUCED TO   5.000E-02 TO MEET NEXT OUTPUT TIME POINT

 ITERATION SUMMARY FOR THE INCREMENT:   4 TOTAL ITERATIONS, OF WHICH
   0 ARE SEVERE DISCONTINUITY ITERATIONS AND  4 ARE EQUILIBRIUM ITERATIONS.

 TIME INCREMENT COMPLETED  5.000E-02,  FRACTION OF STEP COMPLETED  0.800    
 STEP TIME COMPLETED       0.800    ,  TOTAL TIME COMPLETED         1.80    
  
     ASYNCHRONOUS OUTPUT DATABASE FRAME FLUSH STARTED
  


  INCREMENT    58 STARTS. ATTEMPT NUMBER  1, TIME INCREMENT  5.000E-02

  NUMBER OF EQUATIONS =    208893     NUMBER OF RHS =    1
  NUMBER OF FLOATING PT. OPERATIONS =  1.42E+11

  USING THE DIRECT SOLVER WITH  28 PROCESSORS

     CHECK POINT   START OF SOLVER    

     CHECK POINT  END OF SOLVER       

       ELAPSED USER TIME (SEC)      =   30.640    
       ELAPSED SYSTEM TIME (SEC)    =   1.7500    
       ELAPSED TOTAL CPU TIME (SEC) =   32.390    
       ELAPSED WALLCLOCK TIME (SEC) =          2

               CONVERGENCE CHECKS FOR EQUILIBRIUM ITERATION     1


 AVERAGE FORCE                      1.896E-05   TIME AVG. FORCE       7.618E-05
 LARGEST RESIDUAL FORCE            -1.425E-04   AT NODE      53028   DOF  2
 LARGEST INCREMENT OF DISP.         2.390E-05   AT NODE      38698   DOF  2
 LARGEST CORRECTION TO DISP.        1.664E-05   AT NODE      27323   DOF  1
          FORCE     EQUILIBRIUM NOT ACHIEVED WITHIN TOLERANCE.

  NUMBER OF EQUATIONS =    208893     NUMBER OF RHS =    1
  NUMBER OF FLOATING PT. OPERATIONS =  1.42E+11

  USING THE DIRECT SOLVER WITH  28 PROCESSORS

     CHECK POINT   START OF SOLVER    

     CHECK POINT  END OF SOLVER       

       ELAPSED USER TIME (SEC)      =   28.730    
       ELAPSED SYSTEM TIME (SEC)    =   1.3800    
       ELAPSED TOTAL CPU TIME (SEC) =   30.110    
       ELAPSED WALLCLOCK TIME (SEC) =          2

               CONVERGENCE CHECKS FOR EQUILIBRIUM ITERATION     2


 AVERAGE FORCE                      1.891E-05   TIME AVG. FORCE       7.618E-05
 LARGEST RESIDUAL FORCE            -1.439E-05   AT NODE      34857   DOF  2
 LARGEST INCREMENT OF DISP.         2.386E-05   AT NODE      38697   DOF  2
 LARGEST CORRECTION TO DISP.       -1.402E-06   AT NODE      34859   DOF  2
          FORCE     EQUILIBRIUM NOT ACHIEVED WITHIN TOLERANCE.

  NUMBER OF EQUATIONS =    208893     NUMBER OF RHS =    1
  NUMBER OF FLOATING PT. OPERATIONS =  1.42E+11

  USING THE DIRECT SOLVER WITH  28 PROCESSORS

     CHECK POINT   START OF SOLVER    

     CHECK POINT  END OF SOLVER       

       ELAPSED USER TIME (SEC)      =   27.190    
       ELAPSED SYSTEM TIME (SEC)    =   1.3200    
       ELAPSED TOTAL CPU TIME (SEC) =   28.510    
       ELAPSED WALLCLOCK TIME (SEC) =          2

               CONVERGENCE CHECKS FOR EQUILIBRIUM ITERATION     3


 AVERAGE FORCE                      1.891E-05   TIME AVG. FORCE       7.618E-05
 LARGEST RESIDUAL FORCE            -5.360E-07   AT NODE      34857   DOF  2
 LARGEST INCREMENT OF DISP.         2.381E-05   AT NODE      38697   DOF  2
 LARGEST CORRECTION TO DISP.       -2.516E-07   AT NODE       2242   DOF  2
          FORCE     EQUILIBRIUM NOT ACHIEVED WITHIN TOLERANCE.

  NUMBER OF EQUATIONS =    208893     NUMBER OF RHS =    1
  NUMBER OF FLOATING PT. OPERATIONS =  1.42E+11

  USING THE DIRECT SOLVER WITH  28 PROCESSORS

     CHECK POINT   START OF SOLVER    

     CHECK POINT  END OF SOLVER       

       ELAPSED USER TIME (SEC)      =   31.480    
       ELAPSED SYSTEM TIME (SEC)    =   1.5700    
       ELAPSED TOTAL CPU TIME (SEC) =   33.050    
       ELAPSED WALLCLOCK TIME (SEC) =          2

               CONVERGENCE CHECKS FOR EQUILIBRIUM ITERATION     4


 AVERAGE FORCE                      1.891E-05   TIME AVG. FORCE       7.618E-05
 LARGEST RESIDUAL FORCE             1.017E-09   AT NODE      34827   DOF  3
 LARGEST INCREMENT OF DISP.         2.381E-05   AT NODE      38697   DOF  2
 LARGEST CORRECTION TO DISP.       -7.355E-09   AT NODE      34857   DOF  2
          THE FORCE     EQUILIBRIUM EQUATIONS HAVE CONVERGED
          TIME INCREMENT MAY NOW INCREASE TO    0.113    
          TIME INCREMENT REDUCED TO   5.000E-02 TO MEET NEXT OUTPUT TIME POINT

 ITERATION SUMMARY FOR THE INCREMENT:   4 TOTAL ITERATIONS, OF WHICH
   0 ARE SEVERE DISCONTINUITY ITERATIONS AND  4 ARE EQUILIBRIUM ITERATIONS.

 TIME INCREMENT COMPLETED  5.000E-02,  FRACTION OF STEP COMPLETED  0.850    
 STEP TIME COMPLETED       0.850    ,  TOTAL TIME COMPLETED         1.85    
  
     ASYNCHRONOUS OUTPUT DATABASE FRAME FLUSH STARTED
  


  INCREMENT    59 STARTS. ATTEMPT NUMBER  1, TIME INCREMENT  5.000E-02

  NUMBER OF EQUATIONS =    208893     NUMBER OF RHS =    1
  NUMBER OF FLOATING PT. OPERATIONS =  1.42E+11

  USING THE DIRECT SOLVER WITH  28 PROCESSORS

     CHECK POINT   START OF SOLVER    

     CHECK POINT  END OF SOLVER       

       ELAPSED USER TIME (SEC)      =   29.410    
       ELAPSED SYSTEM TIME (SEC)    =   1.3400    
       ELAPSED TOTAL CPU TIME (SEC) =   30.750    
       ELAPSED WALLCLOCK TIME (SEC) =          2

               CONVERGENCE CHECKS FOR EQUILIBRIUM ITERATION     1


 AVERAGE FORCE                      1.929E-05   TIME AVG. FORCE       7.522E-05
 LARGEST RESIDUAL FORCE            -4.722E-05   AT NODE      53028   DOF  2
 LARGEST INCREMENT OF DISP.        -2.660E-05   AT NODE       6767   DOF  2
 LARGEST CORRECTION TO DISP.       -8.978E-06   AT NODE      27323   DOF  1
          FORCE     EQUILIBRIUM NOT ACHIEVED WITHIN TOLERANCE.

  NUMBER OF EQUATIONS =    208893     NUMBER OF RHS =    1
  NUMBER OF FLOATING PT. OPERATIONS =  1.42E+11

  USING THE DIRECT SOLVER WITH  28 PROCESSORS

     CHECK POINT   START OF SOLVER    

     CHECK POINT  END OF SOLVER       

       ELAPSED USER TIME (SEC)      =   30.130    
       ELAPSED SYSTEM TIME (SEC)    =   1.2300    
       ELAPSED TOTAL CPU TIME (SEC) =   31.360    
       ELAPSED WALLCLOCK TIME (SEC) =          2

               CONVERGENCE CHECKS FOR EQUILIBRIUM ITERATION     2


 AVERAGE FORCE                      1.929E-05   TIME AVG. FORCE       7.522E-05
 LARGEST RESIDUAL FORCE            -2.392E-06   AT NODE      34857   DOF  2
 LARGEST INCREMENT OF DISP.        -2.656E-05   AT NODE       6767   DOF  2
 LARGEST CORRECTION TO DISP.       -4.208E-07   AT NODE       2242   DOF  2
          FORCE     EQUILIBRIUM NOT ACHIEVED WITHIN TOLERANCE.

  NUMBER OF EQUATIONS =    208893     NUMBER OF RHS =    1
  NUMBER OF FLOATING PT. OPERATIONS =  1.42E+11

  USING THE DIRECT SOLVER WITH  28 PROCESSORS

     CHECK POINT   START OF SOLVER    

     CHECK POINT  END OF SOLVER       

       ELAPSED USER TIME (SEC)      =   27.960    
       ELAPSED SYSTEM TIME (SEC)    =   1.0500    
       ELAPSED TOTAL CPU TIME (SEC) =   29.010    
       ELAPSED WALLCLOCK TIME (SEC) =          2

               CONVERGENCE CHECKS FOR EQUILIBRIUM ITERATION     3


 AVERAGE FORCE                      1.929E-05   TIME AVG. FORCE       7.522E-05
 LARGEST RESIDUAL FORCE            -1.076E-08   AT NODE      34857   DOF  2
 LARGEST INCREMENT OF DISP.        -2.657E-05   AT NODE       6767   DOF  2
 LARGEST CORRECTION TO DISP.       -2.703E-08   AT NODE       2242   DOF  2
          THE FORCE     EQUILIBRIUM EQUATIONS HAVE CONVERGED
          TIME INCREMENT MAY NOW INCREASE TO    0.113    
          TIME INCREMENT REDUCED TO   5.000E-02 TO MEET NEXT OUTPUT TIME POINT

 ITERATION SUMMARY FOR THE INCREMENT:   3 TOTAL ITERATIONS, OF WHICH
   0 ARE SEVERE DISCONTINUITY ITERATIONS AND  3 ARE EQUILIBRIUM ITERATIONS.

 TIME INCREMENT COMPLETED  5.000E-02,  FRACTION OF STEP COMPLETED  0.900    
 STEP TIME COMPLETED       0.900    ,  TOTAL TIME COMPLETED         1.90    
  
     ASYNCHRONOUS OUTPUT DATABASE FRAME FLUSH STARTED
  


  INCREMENT    60 STARTS. ATTEMPT NUMBER  1, TIME INCREMENT  5.000E-02

  NUMBER OF EQUATIONS =    208893     NUMBER OF RHS =    1
  NUMBER OF FLOATING PT. OPERATIONS =  1.42E+11

  USING THE DIRECT SOLVER WITH  28 PROCESSORS

     CHECK POINT   START OF SOLVER    

     CHECK POINT  END OF SOLVER       

       ELAPSED USER TIME (SEC)      =   27.350    
       ELAPSED SYSTEM TIME (SEC)    =   1.6700    
       ELAPSED TOTAL CPU TIME (SEC) =   29.020    
       ELAPSED WALLCLOCK TIME (SEC) =          2

               CONVERGENCE CHECKS FOR EQUILIBRIUM ITERATION     1


 AVERAGE FORCE                      1.994E-05   TIME AVG. FORCE       7.430E-05
 LARGEST RESIDUAL FORCE            -1.807E-05   AT NODE      34857   DOF  2
 LARGEST INCREMENT OF DISP.        -4.013E-05   AT NODE       6767   DOF  2
 LARGEST CORRECTION TO DISP.        1.440E-05   AT NODE      63385   DOF  1
          FORCE     EQUILIBRIUM NOT ACHIEVED WITHIN TOLERANCE.

  NUMBER OF EQUATIONS =    208893     NUMBER OF RHS =    1
  NUMBER OF FLOATING PT. OPERATIONS =  1.42E+11

  USING THE DIRECT SOLVER WITH  28 PROCESSORS

     CHECK POINT   START OF SOLVER    

     CHECK POINT  END OF SOLVER       

       ELAPSED USER TIME (SEC)      =   31.050    
       ELAPSED SYSTEM TIME (SEC)    =   1.1800    
       ELAPSED TOTAL CPU TIME (SEC) =   32.230    
       ELAPSED WALLCLOCK TIME (SEC) =          2

               CONVERGENCE CHECKS FOR EQUILIBRIUM ITERATION     2


 AVERAGE FORCE                      2.003E-05   TIME AVG. FORCE       7.430E-05
 LARGEST RESIDUAL FORCE            -5.167E-07   AT NODE      34857   DOF  2
 LARGEST INCREMENT OF DISP.        -3.967E-05   AT NODE       6767   DOF  2
 LARGEST CORRECTION TO DISP.       -5.850E-07   AT NODE      63463   DOF  1
          FORCE     EQUILIBRIUM NOT ACHIEVED WITHIN TOLERANCE.

  NUMBER OF EQUATIONS =    208893     NUMBER OF RHS =    1
  NUMBER OF FLOATING PT. OPERATIONS =  1.42E+11

  USING THE DIRECT SOLVER WITH  28 PROCESSORS

     CHECK POINT   START OF SOLVER    

     CHECK POINT  END OF SOLVER       

       ELAPSED USER TIME (SEC)      =   28.090    
       ELAPSED SYSTEM TIME (SEC)    =   1.5300    
       ELAPSED TOTAL CPU TIME (SEC) =   29.620    
       ELAPSED WALLCLOCK TIME (SEC) =          2

               CONVERGENCE CHECKS FOR EQUILIBRIUM ITERATION     3


 AVERAGE FORCE                      2.003E-05   TIME AVG. FORCE       7.430E-05
 LARGEST RESIDUAL FORCE             6.448E-09   AT NODE      20983   DOF  1
 LARGEST INCREMENT OF DISP.        -3.968E-05   AT NODE       6767   DOF  2
 LARGEST CORRECTION TO DISP.       -2.711E-08   AT NODE       5467   DOF  1
          THE FORCE     EQUILIBRIUM EQUATIONS HAVE CONVERGED

 ITERATION SUMMARY FOR THE INCREMENT:   3 TOTAL ITERATIONS, OF WHICH
   0 ARE SEVERE DISCONTINUITY ITERATIONS AND  3 ARE EQUILIBRIUM ITERATIONS.

 TIME INCREMENT COMPLETED  5.000E-02,  FRACTION OF STEP COMPLETED  0.950    
 STEP TIME COMPLETED       0.950    ,  TOTAL TIME COMPLETED         1.95    
  
     ASYNCHRONOUS OUTPUT DATABASE FRAME FLUSH STARTED
  


  INCREMENT    61 STARTS. ATTEMPT NUMBER  1, TIME INCREMENT  5.000E-02

  NUMBER OF EQUATIONS =    208893     NUMBER OF RHS =    1
  NUMBER OF FLOATING PT. OPERATIONS =  1.42E+11

  USING THE DIRECT SOLVER WITH  28 PROCESSORS

     CHECK POINT   START OF SOLVER    

     CHECK POINT  END OF SOLVER       

       ELAPSED USER TIME (SEC)      =   32.080    
       ELAPSED SYSTEM TIME (SEC)    =   1.7000    
       ELAPSED TOTAL CPU TIME (SEC) =   33.780    
       ELAPSED WALLCLOCK TIME (SEC) =          2

               CONVERGENCE CHECKS FOR EQUILIBRIUM ITERATION     1


 AVERAGE FORCE                      2.082E-05   TIME AVG. FORCE       7.342E-05
 LARGEST RESIDUAL FORCE            -1.266E-04   AT NODE      53028   DOF  2
 LARGEST INCREMENT OF DISP.         6.556E-05   AT NODE      63385   DOF  1
 LARGEST CORRECTION TO DISP.        3.923E-05   AT NODE      65444   DOF  1
          FORCE     EQUILIBRIUM NOT ACHIEVED WITHIN TOLERANCE.

  NUMBER OF EQUATIONS =    208893     NUMBER OF RHS =    1
  NUMBER OF FLOATING PT. OPERATIONS =  1.42E+11

  USING THE DIRECT SOLVER WITH  28 PROCESSORS

     CHECK POINT   START OF SOLVER    

     CHECK POINT  END OF SOLVER       

       ELAPSED USER TIME (SEC)      =   26.730    
       ELAPSED SYSTEM TIME (SEC)    =   1.4600    
       ELAPSED TOTAL CPU TIME (SEC) =   28.190    
       ELAPSED WALLCLOCK TIME (SEC) =          1

               CONVERGENCE CHECKS FOR EQUILIBRIUM ITERATION     2


 AVERAGE FORCE                      2.114E-05   TIME AVG. FORCE       7.343E-05
 LARGEST RESIDUAL FORCE            -1.385E-06   AT NODE      43115   DOF  2
 LARGEST INCREMENT OF DISP.         6.426E-05   AT NODE      63385   DOF  1
 LARGEST CORRECTION TO DISP.       -1.656E-06   AT NODE      65785   DOF  1
          FORCE     EQUILIBRIUM NOT ACHIEVED WITHIN TOLERANCE.

  NUMBER OF EQUATIONS =    208893     NUMBER OF RHS =    1
  NUMBER OF FLOATING PT. OPERATIONS =  1.42E+11

  USING THE DIRECT SOLVER WITH  28 PROCESSORS

     CHECK POINT   START OF SOLVER    

     CHECK POINT  END OF SOLVER       

       ELAPSED USER TIME (SEC)      =   30.980    
       ELAPSED SYSTEM TIME (SEC)    =   1.2400    
       ELAPSED TOTAL CPU TIME (SEC) =   32.220    
       ELAPSED WALLCLOCK TIME (SEC) =          2

               CONVERGENCE CHECKS FOR EQUILIBRIUM ITERATION     3


 AVERAGE FORCE                      2.114E-05   TIME AVG. FORCE       7.343E-05
 LARGEST RESIDUAL FORCE            -2.304E-08   AT NODE      27355   DOF  2
 LARGEST INCREMENT OF DISP.         6.431E-05   AT NODE      63385   DOF  1
 LARGEST CORRECTION TO DISP.        1.417E-07   AT NODE       9167   DOF  1
          THE FORCE     EQUILIBRIUM EQUATIONS HAVE CONVERGED

 ITERATION SUMMARY FOR THE INCREMENT:   3 TOTAL ITERATIONS, OF WHICH
   0 ARE SEVERE DISCONTINUITY ITERATIONS AND  3 ARE EQUILIBRIUM ITERATIONS.

 TIME INCREMENT COMPLETED  5.000E-02,  FRACTION OF STEP COMPLETED   1.00    
 STEP TIME COMPLETED        1.00    ,  TOTAL TIME COMPLETED         2.00    


          THE ANALYSIS HAS BEEN COMPLETED



     ANALYSIS SUMMARY:
     TOTAL OF         69  INCREMENTS
                       8  CUTBACKS IN AUTOMATIC INCREMENTATION
                     277  ITERATIONS INCLUDING CONTACT ITERATIONS IF PRESENT
                     277  PASSES THROUGH THE EQUATION SOLVER OF WHICH 
                     277  INVOLVE MATRIX DECOMPOSITION, INCLUDING
                       0  DECOMPOSITION(S) OF THE MASS MATRIX
                       1  REORDERING OF EQUATIONS TO MINIMIZE WAVEFRONT
                       0  ADDITIONAL RESIDUAL EVALUATIONS FOR LINE SEARCHES
                       0  ADDITIONAL OPERATOR EVALUATIONS FOR LINE SEARCHES
                       5  WARNING MESSAGES DURING USER INPUT PROCESSING
                      57  WARNING MESSAGES DURING ANALYSIS
                      34  ANALYSIS WARNINGS ARE NUMERICAL PROBLEM MESSAGES
                      15  ANALYSIS WARNINGS ARE NEGATIVE EIGENVALUE MESSAGES
                       0  ERROR MESSAGES



     JOB TIME SUMMARY
       USER TIME (SEC)      =   11162.    
       SYSTEM TIME (SEC)    =   1009.1    
       TOTAL CPU TIME (SEC) =   12171.    
       WALLCLOCK TIME (SEC) =        909
